<?xml version="1.0" encoding="UTF-8"?>

<!-- generated on Thu Aug  9 20:27:39 2018 by Eclipse SUMO netconvert Version UNKNOWN
<configuration xmlns:xsi="http://www.w3.org/2001/XMLSchema-instance" xsi:noNamespaceSchemaLocation="http://sumo.dlr.de/xsd/netconvertConfiguration.xsd">

    <input>
        <osm-files value="small_southampton.osm"/>
    </input>

    <output>
        <output-file value="small_southampton.net.xml"/>
    </output>

    <projection>
        <proj.utm value="true"/>
    </projection>

    <edge_removal>
        <keep-edges.by-vclass value="private"/>
        <remove-edges.isolated value="true"/>
    </edge_removal>

    <processing>
        <geometry.remove value="true"/>
        <edges.join value="true"/>
    </processing>

</configuration>
-->

<net version="0.27" junctionCornerDetail="5" xmlns:xsi="http://www.w3.org/2001/XMLSchema-instance" xsi:noNamespaceSchemaLocation="http://sumo.dlr.de/xsd/net_file.xsd">

    <location netOffset="-609998.38,-5640712.97" convBoundary="0.00,0.00,2637.34,1869.77" origBoundary="-1.442772,50.902946,-1.397628,50.924268" projParameter="+proj=utm +zone=30 +ellps=WGS84 +datum=WGS84 +units=m +no_defs"/>

    <type id="highway.bridleway" priority="1" numLanes="1" speed="2.78" allow="pedestrian" oneway="1" width="2.00"/>
    <type id="highway.bus_guideway" priority="1" numLanes="1" speed="27.78" allow="bus" oneway="1"/>
    <type id="highway.cycleway" priority="1" numLanes="1" speed="8.33" allow="bicycle" oneway="0" width="1.00"/>
    <type id="highway.footway" priority="1" numLanes="1" speed="2.78" allow="pedestrian" oneway="1" width="2.00"/>
    <type id="highway.ford" priority="1" numLanes="1" speed="2.78" allow="army" oneway="0"/>
    <type id="highway.living_street" priority="3" numLanes="1" speed="2.78" disallow="tram rail_urban rail rail_electric ship" oneway="0"/>
    <type id="highway.motorway" priority="13" numLanes="2" speed="44.44" allow="private emergency authority army vip passenger hov taxi bus coach delivery truck trailer motorcycle evehicle custom1 custom2" oneway="1"/>
    <type id="highway.motorway_link" priority="12" numLanes="1" speed="22.22" allow="private emergency authority army vip passenger hov taxi bus coach delivery truck trailer motorcycle evehicle custom1 custom2" oneway="1"/>
    <type id="highway.path" priority="1" numLanes="1" speed="2.78" allow="bicycle pedestrian" oneway="1" width="2.00"/>
    <type id="highway.pedestrian" priority="1" numLanes="1" speed="2.78" allow="pedestrian" oneway="1" width="2.00"/>
    <type id="highway.primary" priority="9" numLanes="2" speed="27.78" disallow="tram rail_urban rail rail_electric ship" oneway="0"/>
    <type id="highway.primary_link" priority="8" numLanes="1" speed="22.22" disallow="tram rail_urban rail rail_electric ship" oneway="0"/>
    <type id="highway.raceway" priority="14" numLanes="2" speed="83.33" allow="vip" oneway="0"/>
    <type id="highway.residential" priority="4" numLanes="1" speed="13.89" disallow="tram rail_urban rail rail_electric ship" oneway="0"/>
    <type id="highway.secondary" priority="7" numLanes="2" speed="27.78" disallow="tram rail_urban rail rail_electric ship" oneway="0"/>
    <type id="highway.secondary_link" priority="6" numLanes="1" speed="22.22" disallow="tram rail_urban rail rail_electric ship" oneway="0"/>
    <type id="highway.service" priority="2" numLanes="1" speed="5.56" allow="delivery bicycle pedestrian" oneway="0"/>
    <type id="highway.stairs" priority="1" numLanes="1" speed="1.39" allow="pedestrian" oneway="1" width="2.00"/>
    <type id="highway.step" priority="1" numLanes="1" speed="1.39" allow="pedestrian" oneway="1" width="2.00"/>
    <type id="highway.steps" priority="1" numLanes="1" speed="1.39" allow="pedestrian" oneway="1" width="2.00"/>
    <type id="highway.tertiary" priority="6" numLanes="1" speed="22.22" disallow="tram rail_urban rail rail_electric ship" oneway="0"/>
    <type id="highway.tertiary_link" priority="5" numLanes="1" speed="22.22" disallow="tram rail_urban rail rail_electric ship" oneway="0"/>
    <type id="highway.track" priority="1" numLanes="1" speed="5.56" disallow="tram rail_urban rail rail_electric ship" oneway="0"/>
    <type id="highway.trunk" priority="11" numLanes="2" speed="27.78" disallow="tram rail_urban rail rail_electric bicycle pedestrian ship" oneway="0"/>
    <type id="highway.trunk_link" priority="10" numLanes="1" speed="22.22" disallow="tram rail_urban rail rail_electric bicycle pedestrian ship" oneway="0"/>
    <type id="highway.unclassified" priority="5" numLanes="1" speed="13.89" disallow="tram rail_urban rail rail_electric ship" oneway="0"/>
    <type id="highway.unsurfaced" priority="1" numLanes="1" speed="8.33" disallow="tram rail_urban rail rail_electric ship" oneway="0"/>
    <type id="railway.light_rail" priority="15" numLanes="1" speed="27.78" allow="rail_urban" oneway="1"/>
    <type id="railway.preserved" priority="15" numLanes="1" speed="27.78" allow="rail" oneway="1"/>
    <type id="railway.rail" priority="15" numLanes="1" speed="83.33" allow="rail rail_electric" oneway="1"/>
    <type id="railway.subway" priority="15" numLanes="1" speed="27.78" allow="rail_urban" oneway="1"/>
    <type id="railway.tram" priority="15" numLanes="1" speed="13.89" allow="tram" oneway="1"/>

    <edge id=":1015739562_0" function="internal">
        <lane id=":1015739562_0_0" index="0" disallow="tram rail_urban rail rail_electric ship" speed="13.41" length="0.30" shape="2311.73,976.34 2311.81,976.07"/>
        <lane id=":1015739562_0_1" index="1" disallow="tram rail_urban rail rail_electric ship" speed="13.41" length="0.30" shape="2314.81,977.21 2314.89,976.92"/>
        <lane id=":1015739562_0_2" index="2" disallow="tram rail_urban rail rail_electric ship" speed="13.41" length="0.30" shape="2317.89,978.09 2317.98,977.78"/>
    </edge>
    <edge id=":1015739567_0" function="internal">
        <lane id=":1015739567_0_0" index="0" disallow="tram rail_urban rail rail_electric ship" speed="13.41" length="0.30" shape="2281.68,963.05 2281.61,963.34"/>
        <lane id=":1015739567_0_1" index="1" disallow="tram rail_urban rail rail_electric ship" speed="13.41" length="0.30" shape="2278.55,962.36 2278.49,962.66"/>
    </edge>
    <edge id=":1015739573_0" function="internal">
        <lane id=":1015739573_0_0" index="0" disallow="tram rail_urban rail rail_electric ship" speed="13.41" length="8.34" shape="2304.34,855.27 2302.60,863.38"/>
        <lane id=":1015739573_0_1" index="1" disallow="tram rail_urban rail rail_electric ship" speed="13.41" length="8.34" shape="2301.21,854.58 2299.45,862.77"/>
    </edge>
    <edge id=":1015739573_2" function="internal">
        <lane id=":1015739573_2_0" index="0" disallow="tram rail_urban rail rail_electric ship" speed="11.18" length="7.84" shape="2296.81,855.64 2298.20,857.56 2299.10,859.39 2299.52,861.13 2299.45,862.77"/>
    </edge>
    <edge id=":1015739585_0" function="internal">
        <lane id=":1015739585_0_0" index="0" disallow="tram rail_urban rail rail_electric ship" speed="13.41" length="0.98" shape="2183.72,1247.36 2183.57,1247.60 2183.43,1247.76 2183.27,1247.87 2183.00,1247.99"/>
    </edge>
    <edge id=":1015973750_0" function="internal">
        <lane id=":1015973750_0_0" index="0" disallow="tram rail_urban rail rail_electric ship" speed="13.41" length="0.38" shape="1443.07,170.54 1443.02,170.51 1442.99,170.49 1442.95,170.47 1442.90,170.45"/>
        <lane id=":1015973750_0_1" index="1" disallow="tram rail_urban rail rail_electric ship" speed="13.41" length="0.38" shape="1444.75,167.81 1444.61,167.72 1444.50,167.67 1444.40,167.61 1444.25,167.54"/>
    </edge>
    <edge id=":1015973750_2" function="internal">
        <lane id=":1015973750_2_0" index="0" disallow="tram rail_urban rail rail_electric ship" speed="13.41" length="2.34" shape="1444.75,167.81 1444.15,166.50 1444.23,165.61"/>
    </edge>
    <edge id=":1015973750_6" function="internal">
        <lane id=":1015973750_6_0" index="0" speed="13.41" length="2.34" shape="1444.23,165.61 1444.99,165.14 1446.43,165.09"/>
    </edge>
    <edge id=":1015973750_3" function="internal">
        <lane id=":1015973750_3_0" index="0" disallow="tram rail_urban rail rail_electric ship" speed="13.41" length="1.14" shape="1446.94,161.74 1447.29,161.90 1447.54,162.02 1447.77,162.16 1448.11,162.37"/>
        <lane id=":1015973750_3_1" index="1" disallow="tram rail_urban rail rail_electric ship" speed="13.41" length="1.14" shape="1445.59,164.64 1445.85,164.76 1446.02,164.85 1446.19,164.94 1446.43,165.09"/>
    </edge>
    <edge id=":1015973750_5" function="internal">
        <lane id=":1015973750_5_0" index="0" disallow="tram rail_urban rail rail_electric ship" speed="13.41" length="2.34" shape="1445.59,164.64 1446.34,165.87 1446.37,166.76"/>
    </edge>
    <edge id=":1015973750_7" function="internal">
        <lane id=":1015973750_7_0" index="0" speed="13.41" length="2.34" shape="1446.37,166.76 1445.67,167.32 1444.25,167.54"/>
    </edge>
    <edge id=":1015973771_0" function="internal">
        <lane id=":1015973771_0_0" index="0" disallow="tram rail_urban rail rail_electric ship" speed="13.41" length="0.25" shape="1467.08,180.28 1466.85,180.23"/>
        <lane id=":1015973771_0_1" index="1" disallow="tram rail_urban rail rail_electric ship" speed="13.41" length="0.25" shape="1467.69,177.13 1467.42,177.08"/>
    </edge>
    <edge id=":1015973771_2" function="internal">
        <lane id=":1015973771_2_0" index="0" disallow="tram rail_urban rail rail_electric ship" speed="13.41" length="2.34" shape="1467.69,177.13 1466.66,176.12 1466.42,175.26"/>
    </edge>
    <edge id=":1015973771_6" function="internal">
        <lane id=":1015973771_6_0" index="0" speed="13.41" length="2.34" shape="1466.42,175.26 1466.96,174.55 1468.29,173.99"/>
    </edge>
    <edge id=":1015973771_3" function="internal">
        <lane id=":1015973771_3_0" index="0" disallow="tram rail_urban rail rail_electric ship" speed="13.41" length="0.33" shape="1468.55,170.79 1468.90,170.85"/>
        <lane id=":1015973771_3_1" index="1" disallow="tram rail_urban rail rail_electric ship" speed="13.41" length="0.33" shape="1467.99,173.93 1468.29,173.99"/>
    </edge>
    <edge id=":1015973771_5" function="internal">
        <lane id=":1015973771_5_0" index="0" disallow="tram rail_urban rail rail_electric ship" speed="13.41" length="2.34" shape="1467.99,173.93 1469.03,174.93 1469.28,175.79"/>
    </edge>
    <edge id=":1015973771_7" function="internal">
        <lane id=":1015973771_7_0" index="0" speed="13.41" length="2.34" shape="1469.28,175.79 1468.74,176.51 1467.42,177.08"/>
    </edge>
    <edge id=":1015973797_0" function="internal">
        <lane id=":1015973797_0_0" index="0" disallow="tram rail_urban rail rail_electric ship" speed="13.41" length="0.11" shape="1453.36,185.86 1453.31,185.95"/>
    </edge>
    <edge id=":1015973797_1" function="internal">
        <lane id=":1015973797_1_0" index="0" disallow="tram rail_urban rail rail_electric ship" speed="13.41" length="2.34" shape="1453.36,185.86 1452.07,186.51 1451.18,186.46"/>
    </edge>
    <edge id=":1015973797_5" function="internal">
        <lane id=":1015973797_5_0" index="0" speed="13.41" length="2.34" shape="1451.18,186.46 1450.68,185.72 1450.57,184.28"/>
    </edge>
    <edge id=":1015973797_2" function="internal">
        <lane id=":1015973797_2_0" index="0" disallow="tram rail_urban rail rail_electric ship" speed="13.41" length="0.43" shape="1447.54,183.17 1447.79,182.70"/>
        <lane id=":1015973797_2_1" index="1" disallow="tram rail_urban rail rail_electric ship" speed="13.41" length="0.43" shape="1450.43,184.56 1450.57,184.28"/>
    </edge>
    <edge id=":1015973797_4" function="internal">
        <lane id=":1015973797_4_0" index="0" disallow="tram rail_urban rail rail_electric ship" speed="13.41" length="2.34" shape="1450.43,184.56 1451.67,183.83 1452.56,183.82"/>
    </edge>
    <edge id=":1015973797_6" function="internal">
        <lane id=":1015973797_6_0" index="0" speed="13.41" length="2.34" shape="1452.56,183.82 1453.11,184.52 1453.31,185.95"/>
    </edge>
    <edge id=":1045972184_0" function="internal">
        <lane id=":1045972184_0_0" index="0" disallow="tram rail_urban rail rail_electric ship" speed="13.41" length="16.86" shape="2210.15,1289.44 2207.48,1286.41 2204.77,1282.96 2202.23,1279.38 2200.04,1275.98"/>
    </edge>
    <edge id=":1045972184_1" function="internal">
        <lane id=":1045972184_1_0" index="0" disallow="tram rail_urban rail rail_electric ship" speed="13.41" length="14.31" shape="2210.15,1289.44 2208.82,1287.08 2208.76,1284.12 2209.97,1280.54 2212.44,1276.36"/>
    </edge>
    <edge id=":1045972184_2" function="internal">
        <lane id=":1045972184_2_0" index="0" disallow="tram rail_urban rail rail_electric ship" speed="13.41" length="4.67" shape="2210.15,1289.44 2209.90,1288.02 2210.20,1287.18 2211.06,1286.92 2212.47,1287.24"/>
    </edge>
    <edge id=":1045972184_3" function="internal">
        <lane id=":1045972184_3_0" index="0" disallow="tram rail_urban rail rail_electric ship" speed="13.41" length="9.15" shape="2202.78,1274.32 2204.47,1276.41 2206.21,1277.15 2207.99,1276.52 2209.81,1274.54"/>
    </edge>
    <edge id=":1045972184_4" function="internal">
        <lane id=":1045972184_4_0" index="0" disallow="tram rail_urban rail rail_electric ship" speed="13.41" length="16.17" shape="2202.78,1274.32 2204.90,1277.64 2207.30,1281.03 2209.86,1284.29 2212.47,1287.24"/>
    </edge>
    <edge id=":1045972184_5" function="internal">
        <lane id=":1045972184_5_0" index="0" disallow="tram rail_urban rail rail_electric ship" speed="13.41" length="4.67" shape="2202.78,1274.32 2202.71,1275.76 2202.24,1276.52 2201.34,1276.59 2200.04,1275.98"/>
    </edge>
    <edge id=":1045972184_6" function="internal">
        <lane id=":1045972184_6_0" index="0" disallow="tram rail_urban rail rail_electric ship" speed="20.60" length="16.58" shape="2199.98,1287.74 2209.81,1274.54"/>
        <lane id=":1045972184_6_1" index="1" disallow="tram rail_urban rail rail_electric ship" speed="20.60" length="16.58" shape="2202.47,1289.75 2212.44,1276.36"/>
    </edge>
    <edge id=":1045972184_8" function="internal">
        <lane id=":1045972184_8_0" index="0" disallow="tram rail_urban rail rail_electric ship" speed="20.60" length="11.97" shape="2202.47,1289.75 2205.23,1286.96 2207.82,1285.61 2210.23,1285.70 2212.47,1287.24"/>
    </edge>
    <edge id=":1072423835_0" function="internal">
        <lane id=":1072423835_0_0" index="0" disallow="tram rail_urban rail rail_electric ship" speed="13.41" length="19.25" shape="476.72,449.59 459.27,441.45"/>
    </edge>
    <edge id=":1072423835_1" function="internal">
        <lane id=":1072423835_1_0" index="0" disallow="tram rail_urban rail rail_electric ship" speed="13.41" length="9.49" shape="476.72,449.59 474.25,447.96 473.44,446.37 474.31,444.81 476.84,443.28"/>
    </edge>
    <edge id=":1072423835_2" function="internal">
        <lane id=":1072423835_2_0" index="0" disallow="tram rail_urban rail rail_electric ship" speed="13.41" length="18.91" shape="458.24,446.07 462.61,445.96 467.71,445.48 472.72,444.59 476.84,443.28"/>
    </edge>
    <edge id=":1072423895_0" function="internal">
        <lane id=":1072423895_0_0" index="0" disallow="tram rail_urban rail rail_electric ship" speed="13.41" length="8.00" shape="542.46,424.11 540.12,424.20 538.50,423.89 536.87,423.57 534.53,423.67"/>
    </edge>
    <edge id=":1072423895_1" function="internal">
        <lane id=":1072423895_1_0" index="0" disallow="tram rail_urban rail rail_electric ship" speed="13.41" length="4.67" shape="542.46,424.11 541.16,423.49 540.65,422.76 540.93,421.91 542.00,420.94"/>
    </edge>
    <edge id=":1072423895_2" function="internal">
        <lane id=":1072423895_2_0" index="0" disallow="tram rail_urban rail rail_electric ship" speed="13.41" length="4.07" shape="534.68,424.22 536.11,423.75 536.56,423.51 536.04,423.48 534.53,423.67"/>
    </edge>
    <edge id=":1072423895_3" function="internal">
        <lane id=":1072423895_3_0" index="0" disallow="tram rail_urban rail rail_electric ship" speed="13.41" length="8.08" shape="534.68,424.22 536.89,423.31 538.29,422.37 539.72,421.54 542.00,420.94"/>
    </edge>
    <edge id=":1072423903_0" function="internal">
        <lane id=":1072423903_0_0" index="0" disallow="tram rail_urban rail rail_electric ship" speed="13.41" length="8.07" shape="489.41,455.79 482.14,452.29"/>
    </edge>
    <edge id=":1072423903_1" function="internal">
        <lane id=":1072423903_1_0" index="0" disallow="tram rail_urban rail rail_electric ship" speed="13.41" length="8.00" shape="489.41,455.79 487.52,454.65 486.25,453.22 485.59,451.49 485.56,449.46"/>
    </edge>
    <edge id=":1072423910_0" function="internal">
        <lane id=":1072423910_0_0" index="0" disallow="tram rail_urban rail rail_electric ship" speed="13.41" length="8.26" shape="482.27,440.85 484.48,439.79 485.98,439.02 487.51,438.34 489.83,437.57"/>
    </edge>
    <edge id=":1072423910_1" function="internal">
        <lane id=":1072423910_1_0" index="0" disallow="tram rail_urban rail rail_electric ship" speed="13.41" length="7.57" shape="486.28,443.82 486.76,441.41 487.51,439.56 488.53,438.28 489.83,437.57"/>
    </edge>
    <edge id=":1072423933_0" function="internal">
        <lane id=":1072423933_0_0" index="0" disallow="tram rail_urban rail rail_electric ship" speed="13.65" length="5.88" shape="501.12,431.65 501.98,432.51 503.17,432.95 504.68,432.99 506.52,432.60"/>
    </edge>
    <edge id=":1072423933_1" function="internal">
        <lane id=":1072423933_1_0" index="0" disallow="tram rail_urban rail rail_electric ship" speed="13.41" length="9.29" shape="497.61,435.25 506.52,432.60"/>
    </edge>
    <edge id=":1074910945_0" function="internal">
        <lane id=":1074910945_0_0" index="0" disallow="tram rail_urban rail rail_electric ship" speed="13.41" length="8.09" shape="1887.60,189.95 1889.85,189.95 1891.67,189.35 1893.07,188.13 1894.03,186.31"/>
    </edge>
    <edge id=":1074910945_1" function="internal">
        <lane id=":1074910945_1_0" index="0" disallow="tram rail_urban rail rail_electric ship" speed="13.41" length="9.62" shape="1891.00,195.50 1894.03,186.31"/>
        <lane id=":1074910945_1_1" index="1" disallow="tram rail_urban rail rail_electric ship" speed="13.41" length="9.62" shape="1894.05,196.46 1897.05,187.37"/>
    </edge>
    <edge id=":1093737225_0" function="internal">
        <lane id=":1093737225_0_0" index="0" disallow="tram rail_urban rail rail_electric ship" speed="13.41" length="4.67" shape="1384.14,1562.21 1383.28,1563.37 1382.46,1563.72 1381.68,1563.28 1380.95,1562.04"/>
    </edge>
    <edge id=":1094890501_0" function="internal">
        <lane id=":1094890501_0_0" index="0" disallow="tram rail_urban rail rail_electric ship" speed="13.89" length="4.67" shape="2064.86,729.29 2064.14,730.54 2063.37,730.99 2062.54,730.64 2061.66,729.49"/>
    </edge>
    <edge id=":11419493_0" function="internal">
        <lane id=":11419493_0_0" index="0" disallow="tram rail_urban rail rail_electric ship" speed="13.41" length="4.67" shape="264.73,1457.09 263.34,1457.48 262.47,1457.27 262.12,1456.45 262.28,1455.02"/>
    </edge>
    <edge id=":11419555_0" function="internal">
        <lane id=":11419555_0_0" index="0" disallow="tram rail_urban rail rail_electric ship" speed="13.41" length="4.67" shape="613.21,1871.06 611.77,1871.13 610.97,1870.73 610.82,1869.85 611.30,1868.49"/>
    </edge>
    <edge id=":11419633_0" function="internal">
        <lane id=":11419633_0_0" index="0" disallow="tram rail_urban rail rail_electric ship" speed="13.41" length="9.45" shape="526.04,1154.82 519.78,1161.86"/>
        <lane id=":11419633_0_1" index="1" disallow="tram rail_urban rail rail_electric ship" speed="13.41" length="9.45" shape="523.65,1152.69 517.34,1159.78"/>
    </edge>
    <edge id=":11419633_2" function="internal">
        <lane id=":11419633_2_0" index="0" disallow="tram rail_urban rail rail_electric ship" speed="13.65" length="5.17" shape="523.65,1152.69 520.58,1155.00 519.27,1155.21"/>
    </edge>
    <edge id=":11419633_3" function="internal">
        <lane id=":11419633_3_0" index="0" disallow="tram rail_urban rail rail_electric ship" speed="13.41" length="2.34" shape="523.65,1152.69 522.26,1153.05 521.39,1152.82"/>
    </edge>
    <edge id=":11419633_11" function="internal">
        <lane id=":11419633_11_0" index="0" speed="13.65" length="11.66" shape="519.27,1155.21 517.07,1155.55 513.13,1154.33 508.75,1151.33"/>
    </edge>
    <edge id=":11419633_12" function="internal">
        <lane id=":11419633_12_0" index="0" speed="13.41" length="2.34" shape="521.39,1152.82 521.06,1151.98 521.26,1150.56"/>
    </edge>
    <edge id=":11419633_4" function="internal">
        <lane id=":11419633_4_0" index="0" disallow="tram rail_urban rail rail_electric ship" speed="13.65" length="9.15" shape="510.82,1148.89 512.96,1150.24 515.01,1150.61 516.99,1150.01 518.88,1148.43"/>
    </edge>
    <edge id=":11419633_5" function="internal">
        <lane id=":11419633_5_0" index="0" disallow="tram rail_urban rail rail_electric ship" speed="13.65" length="13.65" shape="510.82,1148.89 514.69,1152.50 517.07,1155.51 517.95,1157.94 517.34,1159.78"/>
    </edge>
    <edge id=":11419633_6" function="internal">
        <lane id=":11419633_6_0" index="0" disallow="tram rail_urban rail rail_electric ship" speed="13.89" length="4.67" shape="510.82,1148.89 511.22,1150.27 511.01,1151.14 510.19,1151.49 508.75,1151.33"/>
    </edge>
    <edge id=":11419633_7" function="internal">
        <lane id=":11419633_7_0" index="0" disallow="tram rail_urban rail rail_electric ship" speed="13.65" length="5.83" shape="512.44,1155.67 512.25,1154.76 511.13,1153.46 509.75,1152.18 508.75,1151.33"/>
    </edge>
    <edge id=":11419633_8" function="internal">
        <lane id=":11419633_8_0" index="0" disallow="tram rail_urban rail rail_electric ship" speed="13.41" length="9.65" shape="512.44,1155.67 518.88,1148.43"/>
        <lane id=":11419633_8_1" index="1" disallow="tram rail_urban rail rail_electric ship" speed="13.41" length="9.65" shape="514.88,1157.74 521.26,1150.56"/>
    </edge>
    <edge id=":11419633_10" function="internal">
        <lane id=":11419633_10_0" index="0" disallow="tram rail_urban rail rail_electric ship" speed="13.41" length="2.34" shape="514.88,1157.74 516.26,1157.33 517.13,1157.53"/>
    </edge>
    <edge id=":11419633_13" function="internal">
        <lane id=":11419633_13_0" index="0" speed="13.41" length="2.34" shape="517.13,1157.53 517.49,1158.34 517.34,1159.78"/>
    </edge>
    <edge id=":11419640_0" function="internal">
        <lane id=":11419640_0_0" index="0" disallow="tram rail_urban rail rail_electric ship" speed="13.65" length="10.24" shape="580.89,1102.03 578.58,1100.78 576.30,1100.59 574.06,1101.46 571.86,1103.39"/>
    </edge>
    <edge id=":11419640_1" function="internal">
        <lane id=":11419640_1_0" index="0" disallow="tram rail_urban rail rail_electric ship" speed="13.65" length="21.26" shape="580.89,1102.03 563.84,1089.32"/>
    </edge>
    <edge id=":11419640_2" function="internal">
        <lane id=":11419640_2_0" index="0" disallow="tram rail_urban rail rail_electric ship" speed="13.65" length="17.12" shape="580.89,1102.03 577.00,1098.34 575.07,1094.70 575.10,1091.11 577.08,1087.57"/>
    </edge>
    <edge id=":11419640_3" function="internal">
        <lane id=":11419640_3_0" index="0" disallow="tram rail_urban rail rail_electric ship" speed="13.89" length="4.67" shape="580.89,1102.03 580.42,1100.66 580.59,1099.78 581.39,1099.39 582.83,1099.48"/>
    </edge>
    <edge id=":11419640_4" function="internal">
        <lane id=":11419640_4_0" index="0" disallow="tram rail_urban rail rail_electric ship" speed="13.65" length="9.04" shape="581.98,1091.69 580.66,1093.81 580.36,1095.81 581.08,1097.70 582.83,1099.48"/>
    </edge>
    <edge id=":11419640_5" function="internal">
        <lane id=":11419640_5_0" index="0" disallow="tram rail_urban rail rail_electric ship" speed="13.41" length="15.42" shape="581.98,1091.69 571.86,1103.39"/>
        <lane id=":11419640_5_1" index="1" disallow="tram rail_urban rail rail_electric ship" speed="13.41" length="15.42" shape="579.53,1089.63 569.47,1101.26"/>
    </edge>
    <edge id=":11419640_7" function="internal">
        <lane id=":11419640_7_0" index="0" disallow="tram rail_urban rail rail_electric ship" speed="13.41" length="5.55" shape="579.53,1089.63 576.38,1092.19 574.93,1092.51"/>
    </edge>
    <edge id=":11419640_8" function="internal">
        <lane id=":11419640_8_0" index="0" disallow="tram rail_urban rail rail_electric ship" speed="13.41" length="2.34" shape="579.53,1089.63 578.15,1090.03 577.28,1089.82"/>
    </edge>
    <edge id=":11419640_18" function="internal">
        <lane id=":11419640_18_0" index="0" speed="13.41" length="11.98" shape="574.93,1092.51 572.71,1092.99 568.53,1092.03 563.84,1089.32"/>
    </edge>
    <edge id=":11419640_19" function="internal">
        <lane id=":11419640_19_0" index="0" speed="13.41" length="2.34" shape="577.28,1089.82 576.92,1089.00 577.08,1087.57"/>
    </edge>
    <edge id=":11419640_9" function="internal">
        <lane id=":11419640_9_0" index="0" disallow="tram rail_urban rail rail_electric ship" speed="13.41" length="10.10" shape="565.73,1086.73 568.12,1087.99 570.40,1088.20 572.57,1087.37 574.64,1085.51"/>
    </edge>
    <edge id=":11419640_10" function="internal">
        <lane id=":11419640_10_0" index="0" disallow="tram rail_urban rail rail_electric ship" speed="13.65" length="21.33" shape="565.73,1086.73 582.83,1099.48"/>
    </edge>
    <edge id=":11419640_11" function="internal">
        <lane id=":11419640_11_0" index="0" disallow="tram rail_urban rail rail_electric ship" speed="13.41" length="17.40" shape="565.73,1086.73 569.75,1090.40 571.72,1094.04 571.62,1097.66 569.47,1101.26"/>
    </edge>
    <edge id=":11419640_12" function="internal">
        <lane id=":11419640_12_0" index="0" disallow="tram rail_urban rail rail_electric ship" speed="13.41" length="4.67" shape="565.73,1086.73 566.23,1088.08 566.08,1088.96 565.29,1089.38 563.84,1089.32"/>
    </edge>
    <edge id=":11419640_13" function="internal">
        <lane id=":11419640_13_0" index="0" disallow="tram rail_urban rail rail_electric ship" speed="13.41" length="9.04" shape="564.68,1097.02 566.06,1094.92 566.38,1092.94 565.64,1091.07 563.84,1089.32"/>
    </edge>
    <edge id=":11419640_14" function="internal">
        <lane id=":11419640_14_0" index="0" disallow="tram rail_urban rail rail_electric ship" speed="13.41" length="15.26" shape="564.68,1097.02 574.64,1085.51"/>
        <lane id=":11419640_14_1" index="1" disallow="tram rail_urban rail rail_electric ship" speed="13.41" length="15.26" shape="567.07,1099.14 577.08,1087.57"/>
    </edge>
    <edge id=":11419640_16" function="internal">
        <lane id=":11419640_16_0" index="0" disallow="tram rail_urban rail rail_electric ship" speed="13.65" length="5.53" shape="567.07,1099.14 570.38,1096.55 571.68,1096.27"/>
    </edge>
    <edge id=":11419640_17" function="internal">
        <lane id=":11419640_17_0" index="0" disallow="tram rail_urban rail rail_electric ship" speed="13.41" length="2.34" shape="567.07,1099.14 568.47,1098.77 569.33,1099.01"/>
    </edge>
    <edge id=":11419640_20" function="internal">
        <lane id=":11419640_20_0" index="0" speed="13.65" length="12.09" shape="571.68,1096.27 574.10,1095.74 578.26,1096.72 582.83,1099.48"/>
    </edge>
    <edge id=":11419640_21" function="internal">
        <lane id=":11419640_21_0" index="0" speed="13.41" length="2.34" shape="569.33,1099.01 569.67,1099.84 569.47,1101.26"/>
    </edge>
    <edge id=":11419683_0" function="internal">
        <lane id=":11419683_0_0" index="0" disallow="tram rail_urban rail rail_electric ship" speed="13.41" length="4.67" shape="213.28,870.49 212.70,869.17 212.80,868.28 213.57,867.82 215.01,867.80"/>
    </edge>
    <edge id=":11419686_0" function="internal">
        <lane id=":11419686_0_0" index="0" disallow="tram rail_urban rail rail_electric ship" speed="13.89" length="4.67" shape="218.51,839.98 217.37,839.10 217.02,838.28 217.47,837.51 218.72,836.79"/>
    </edge>
    <edge id=":11419695_0" function="internal">
        <lane id=":11419695_0_0" index="0" disallow="tram rail_urban rail rail_electric ship" speed="13.89" length="12.65" shape="498.99,992.47 498.28,990.11 496.71,987.77 494.29,985.45 491.01,983.14"/>
    </edge>
    <edge id=":11419695_1" function="internal">
        <lane id=":11419695_1_0" index="0" disallow="tram rail_urban rail rail_electric ship" speed="13.89" length="15.26" shape="498.99,992.47 498.67,988.70 498.55,984.86 498.58,981.02 498.69,977.23"/>
    </edge>
    <edge id=":11419695_2" function="internal">
        <lane id=":11419695_2_0" index="0" disallow="tram rail_urban rail rail_electric ship" speed="13.89" length="2.34" shape="498.99,992.47 499.64,991.19 500.39,990.69"/>
    </edge>
    <edge id=":11419695_9" function="internal">
        <lane id=":11419695_9_0" index="0" speed="13.89" length="2.34" shape="500.39,990.69 501.23,991.00 502.17,992.09"/>
    </edge>
    <edge id=":11419695_3" function="internal">
        <lane id=":11419695_3_0" index="0" disallow="tram rail_urban rail rail_electric ship" speed="13.89" length="14.76" shape="501.89,977.35 501.77,981.07 501.74,984.74 501.85,988.40 502.17,992.09"/>
    </edge>
    <edge id=":11419695_4" function="internal">
        <lane id=":11419695_4_0" index="0" disallow="tram rail_urban rail rail_electric ship" speed="13.89" length="6.42" shape="501.89,977.35 501.03,982.30 500.16,983.39"/>
    </edge>
    <edge id=":11419695_5" function="internal">
        <lane id=":11419695_5_0" index="0" disallow="tram rail_urban rail rail_electric ship" speed="13.89" length="2.34" shape="501.89,977.35 501.05,978.52 500.23,978.89"/>
    </edge>