<?xml version="1.0" encoding="UTF-8"?>

<!-- generated on 03/29/18 22:22:12 by SUMO netconvert Version v0_32_0+0567-75b159a203
<configuration xmlns:xsi="http://www.w3.org/2001/XMLSchema-instance" xsi:noNamespaceSchemaLocation="http://sumo.dlr.de/xsd/netconvertConfiguration.xsd">

    <input>
        <osm-files value="small_manhattan.osm"/>
    </input>

    <output>
        <output-file value="small_manhattan.net.xml"/>
    </output>

    <projection>
        <proj.utm value="true"/>
    </projection>

    <edge_removal>
        <keep-edges.by-vclass value="private"/>
        <remove-edges.isolated value="true"/>
    </edge_removal>

    <processing>
        <geometry.remove value="true"/>
        <edges.join value="true"/>
    </processing>

</configuration>
-->

<net version="0.27" xmlns:xsi="http://www.w3.org/2001/XMLSchema-instance" xsi:noNamespaceSchemaLocation="http://sumo.dlr.de/xsd/net_file.xsd">

    <location netOffset="-584622.51,-4511722.01" convBoundary="0.00,0.00,2723.52,1992.79" origBoundary="-74.001559,40.719744,-73.939616,40.793354" projParameter="+proj=utm +zone=18 +ellps=WGS84 +datum=WGS84 +units=m +no_defs"/>

    <type id="highway.bridleway" priority="1" numLanes="1" speed="2.78" allow="pedestrian" oneway="1" width="2.00"/>
    <type id="highway.bus_guideway" priority="1" numLanes="1" speed="27.78" allow="bus" oneway="1"/>
    <type id="highway.cycleway" priority="1" numLanes="1" speed="8.33" allow="bicycle" oneway="0" width="1.00"/>
    <type id="highway.footway" priority="1" numLanes="1" speed="2.78" allow="pedestrian" oneway="1" width="2.00"/>
    <type id="highway.ford" priority="1" numLanes="1" speed="2.78" allow="army" oneway="0"/>
    <type id="highway.living_street" priority="3" numLanes="1" speed="2.78" disallow="tram rail_urban rail rail_electric ship" oneway="0"/>
    <type id="highway.motorway" priority="13" numLanes="2" speed="44.44" allow="private emergency authority army vip passenger hov taxi bus coach delivery truck trailer motorcycle evehicle custom1 custom2" oneway="1"/>
    <type id="highway.motorway_link" priority="12" numLanes="1" speed="22.22" allow="private emergency authority army vip passenger hov taxi bus coach delivery truck trailer motorcycle evehicle custom1 custom2" oneway="1"/>
    <type id="highway.path" priority="1" numLanes="1" speed="2.78" allow="bicycle pedestrian" oneway="1" width="2.00"/>
    <type id="highway.pedestrian" priority="1" numLanes="1" speed="2.78" allow="pedestrian" oneway="1" width="2.00"/>
    <type id="highway.primary" priority="9" numLanes="2" speed="27.78" disallow="tram rail_urban rail rail_electric ship" oneway="0"/>
    <type id="highway.primary_link" priority="8" numLanes="1" speed="22.22" disallow="tram rail_urban rail rail_electric ship" oneway="0"/>
    <type id="highway.raceway" priority="14" numLanes="2" speed="83.33" allow="vip" oneway="0"/>
    <type id="highway.residential" priority="4" numLanes="1" speed="13.89" disallow="tram rail_urban rail rail_electric ship" oneway="0"/>
    <type id="highway.secondary" priority="7" numLanes="2" speed="27.78" disallow="tram rail_urban rail rail_electric ship" oneway="0"/>
    <type id="highway.secondary_link" priority="6" numLanes="1" speed="22.22" disallow="tram rail_urban rail rail_electric ship" oneway="0"/>
    <type id="highway.service" priority="2" numLanes="1" speed="5.56" allow="delivery bicycle pedestrian" oneway="0"/>
    <type id="highway.services" priority="1" numLanes="1" speed="8.33" disallow="tram rail_urban rail rail_electric ship" oneway="0"/>
    <type id="highway.stairs" priority="1" numLanes="1" speed="1.39" allow="pedestrian" oneway="1" width="2.00"/>
    <type id="highway.step" priority="1" numLanes="1" speed="1.39" allow="pedestrian" oneway="1" width="2.00"/>
    <type id="highway.steps" priority="1" numLanes="1" speed="1.39" allow="pedestrian" oneway="1" width="2.00"/>
    <type id="highway.tertiary" priority="6" numLanes="1" speed="22.22" disallow="tram rail_urban rail rail_electric ship" oneway="0"/>
    <type id="highway.tertiary_link" priority="5" numLanes="1" speed="22.22" disallow="tram rail_urban rail rail_electric ship" oneway="0"/>
    <type id="highway.track" priority="1" numLanes="1" speed="5.56" disallow="tram rail_urban rail rail_electric ship" oneway="0"/>
    <type id="highway.trunk" priority="11" numLanes="2" speed="27.78" disallow="tram rail_urban rail rail_electric bicycle pedestrian ship" oneway="0"/>
    <type id="highway.trunk_link" priority="10" numLanes="1" speed="22.22" disallow="tram rail_urban rail rail_electric bicycle pedestrian ship" oneway="0"/>
    <type id="highway.unclassified" priority="5" numLanes="1" speed="13.89" disallow="tram rail_urban rail rail_electric ship" oneway="0"/>
    <type id="highway.unsurfaced" priority="1" numLanes="1" speed="8.33" disallow="tram rail_urban rail rail_electric ship" oneway="0"/>
    <type id="railway.light_rail" priority="15" numLanes="1" speed="27.78" allow="rail_urban" oneway="1"/>
    <type id="railway.preserved" priority="15" numLanes="1" speed="27.78" allow="rail" oneway="1"/>
    <type id="railway.rail" priority="15" numLanes="1" speed="83.33" allow="rail rail_electric" oneway="1"/>
    <type id="railway.subway" priority="15" numLanes="1" speed="27.78" allow="rail_urban" oneway="1"/>
    <type id="railway.tram" priority="15" numLanes="1" speed="13.89" allow="tram" oneway="1"/>

    <edge id=":100522728_0" function="internal">
        <lane id=":100522728_0_0" index="0" disallow="tram rail_urban rail rail_electric ship" speed="20.84" length="5.02" shape="1885.64,369.58 1884.54,370.41 1883.96,371.39 1883.91,372.52 1884.38,373.81"/>
    </edge>
    <edge id=":100522728_1" function="internal">
        <lane id=":100522728_1_0" index="0" disallow="tram rail_urban rail rail_electric ship" speed="13.89" length="12.84" shape="1885.64,369.58 1874.34,375.66"/>
    </edge>
    <edge id=":100522728_2" function="internal">
        <lane id=":100522728_2_0" index="0" disallow="tram rail_urban rail rail_electric ship" speed="27.78" length="6.21" shape="1881.44,368.34 1884.38,373.81"/>
        <lane id=":100522728_2_1" index="1" disallow="tram rail_urban rail rail_electric ship" speed="27.78" length="6.21" shape="1878.53,369.90 1881.47,375.37"/>
        <lane id=":100522728_2_2" index="2" disallow="tram rail_urban rail rail_electric ship" speed="27.78" length="6.21" shape="1875.62,371.46 1878.56,376.93"/>
    </edge>
    <edge id=":100522728_5" function="internal">
        <lane id=":100522728_5_0" index="0" disallow="tram rail_urban rail rail_electric ship" speed="20.84" length="5.02" shape="1875.62,371.46 1876.10,372.76 1876.04,373.89 1875.46,374.86 1874.34,375.66"/>
    </edge>
    <edge id=":2351532369_0" function="internal">
        <lane id=":2351532369_0_0" index="0" disallow="tram rail_urban rail rail_electric ship" speed="27.78" length="0.30" shape="718.04,1265.83 718.31,1265.69"/>
        <lane id=":2351532369_0_1" index="1" disallow="tram rail_urban rail rail_electric ship" speed="27.78" length="0.30" shape="719.61,1268.74 719.87,1268.59"/>
        <lane id=":2351532369_0_2" index="2" disallow="tram rail_urban rail rail_electric ship" speed="27.78" length="0.30" shape="721.17,1271.64 721.43,1271.50"/>
    </edge>
    <edge id=":2435108438_0" function="internal">
        <lane id=":2435108438_0_0" index="0" disallow="tram rail_urban rail rail_electric ship" speed="27.78" length="0.29" shape="1159.00,952.34 1158.89,952.13"/>
        <lane id=":2435108438_0_1" index="1" disallow="tram rail_urban rail rail_electric ship" speed="27.78" length="0.29" shape="1161.91,950.79 1161.78,950.55"/>
        <lane id=":2435108438_0_2" index="2" disallow="tram rail_urban rail rail_electric ship" speed="27.78" length="0.29" shape="1164.82,949.24 1164.68,948.96"/>
        <lane id=":2435108438_0_3" index="3" disallow="tram rail_urban rail rail_electric ship" speed="27.78" length="0.29" shape="1167.74,947.69 1167.57,947.38"/>
    </edge>
    <edge id=":2435108458_0" function="internal">
        <lane id=":2435108458_0_0" index="0" disallow="tram rail_urban rail rail_electric ship" speed="27.78" length="0.30" shape="1150.15,936.21 1150.02,935.97"/>
        <lane id=":2435108458_0_1" index="1" disallow="tram rail_urban rail rail_electric ship" speed="27.78" length="0.30" shape="1153.05,934.62 1152.91,934.37"/>
        <lane id=":2435108458_0_2" index="2" disallow="tram rail_urban rail rail_electric ship" speed="27.78" length="0.30" shape="1155.94,933.03 1155.79,932.76"/>
        <lane id=":2435108458_0_3" index="3" disallow="tram rail_urban rail rail_electric ship" speed="27.78" length="0.30" shape="1158.83,931.44 1158.67,931.15"/>
    </edge>
    <edge id=":247123611_0" function="internal">
        <lane id=":247123611_0_0" index="0" disallow="tram rail_urban rail rail_electric ship" speed="13.89" length="0.20" shape="247.78,1974.82 247.60,1974.91"/>
    </edge>
    <edge id=":2782279859_0" function="internal">
        <lane id=":2782279859_0_0" index="0" disallow="tram rail_urban rail rail_electric ship" speed="27.78" length="0.30" shape="1203.76,1004.42 1204.01,1004.29"/>
        <lane id=":2782279859_0_1" index="1" disallow="tram rail_urban rail rail_electric ship" speed="27.78" length="0.30" shape="1205.30,1007.34 1205.57,1007.20"/>
        <lane id=":2782279859_0_2" index="2" disallow="tram rail_urban rail rail_electric ship" speed="27.78" length="0.30" shape="1206.84,1010.26 1207.12,1010.11"/>
    </edge>
    <edge id=":2782279879_0" function="internal">
        <lane id=":2782279879_0_0" index="0" disallow="tram rail_urban rail rail_electric ship" speed="27.78" length="0.30" shape="1182.29,1015.92 1182.54,1015.78"/>
        <lane id=":2782279879_0_1" index="1" disallow="tram rail_urban rail rail_electric ship" speed="27.78" length="0.30" shape="1183.85,1018.83 1184.11,1018.68"/>
        <lane id=":2782279879_0_2" index="2" disallow="tram rail_urban rail rail_electric ship" speed="27.78" length="0.30" shape="1185.40,1021.74 1185.68,1021.59"/>
    </edge>
    <edge id=":3463813447_0" function="internal">
        <lane id=":3463813447_0_0" index="0" disallow="tram rail_urban rail rail_electric ship" speed="27.78" length="0.30" shape="696.41,1277.49 696.67,1277.35"/>
        <lane id=":3463813447_0_1" index="1" disallow="tram rail_urban rail rail_electric ship" speed="27.78" length="0.30" shape="697.97,1280.40 698.24,1280.26"/>
        <lane id=":3463813447_0_2" index="2" disallow="tram rail_urban rail rail_electric ship" speed="27.78" length="0.30" shape="699.53,1283.31 699.80,1283.16"/>
    </edge>
    <edge id=":3463815151_0" function="internal">
        <lane id=":3463815151_0_0" index="0" disallow="tram rail_urban rail rail_electric ship" speed="11.18" length="0.24" shape="775.49,1419.17 775.71,1419.06"/>
    </edge>
    <edge id=":3463816116_0" function="internal">
        <lane id=":3463816116_0_0" index="0" disallow="tram rail_urban rail rail_electric ship" speed="13.89" length="0.10" shape="1277.21,1410.40 1277.21,1410.40"/>
    </edge>
    <edge id=":3463816117_0" function="internal">
        <lane id=":3463816117_0_0" index="0" disallow="tram rail_urban rail rail_electric ship" speed="13.89" length="0.30" shape="1289.41,1411.78 1289.15,1411.92"/>
    </edge>
    <edge id=":3463816118_0" function="internal">
        <lane id=":3463816118_0_0" index="0" disallow="tram rail_urban rail rail_electric ship" speed="13.89" length="0.10" shape="1267.83,1423.39 1267.83,1423.39"/>
    </edge>
    <edge id=":3463816119_0" function="internal">
        <lane id=":3463816119_0_0" index="0" disallow="tram rail_urban rail rail_electric ship" speed="13.89" length="0.10" shape="1281.01,1425.93 1281.01,1425.93"/>
    </edge>
    <edge id=":3463817011_0" function="internal">
        <lane id=":3463817011_0_0" index="0" disallow="tram rail_urban rail rail_electric ship" speed="13.89" length="0.28" shape="1394.01,1355.28 1393.77,1355.41"/>
    </edge>
    <edge id=":3463817013_0" function="internal">
        <lane id=":3463817013_0_0" index="0" disallow="tram rail_urban rail rail_electric ship" speed="13.89" length="0.10" shape="1371.82,1367.45 1371.82,1367.45"/>
    </edge>
    <edge id=":3827599085_0" function="internal">
        <lane id=":3827599085_0_0" index="0" disallow="tram rail_urban rail rail_electric ship" speed="13.89" length="0.74" shape="2517.19,26.56 2517.06,26.74 2516.96,26.85 2516.83,26.94 2516.64,27.04"/>
    </edge>
    <edge id=":3977886256_0" function="internal">
        <lane id=":3977886256_0_0" index="0" disallow="tram rail_urban rail rail_electric ship" speed="27.78" length="0.30" shape="1188.45,1007.69 1188.30,1007.43"/>
        <lane id=":3977886256_0_1" index="1" disallow="tram rail_urban rail rail_electric ship" speed="27.78" length="0.30" shape="1191.36,1006.14 1191.22,1005.88"/>
        <lane id=":3977886256_0_2" index="2" disallow="tram rail_urban rail rail_electric ship" speed="27.78" length="0.30" shape="1194.27,1004.59 1194.13,1004.33"/>
        <lane id=":3977886256_0_3" index="3" disallow="tram rail_urban rail rail_electric ship" speed="27.78" length="0.30" shape="1197.18,1003.04 1197.04,1002.78"/>
    </edge>
    <edge id=":3977886860_0" function="internal">
        <lane id=":3977886860_0_0" index="0" disallow="tram rail_urban rail rail_electric ship" speed="27.78" length="0.10" shape="1195.35,1020.75 1195.35,1020.75"/>
        <lane id=":3977886860_0_1" index="1" disallow="tram rail_urban rail rail_electric ship" speed="27.78" length="0.10" shape="1198.27,1019.22 1198.27,1019.22"/>
        <lane id=":3977886860_0_2" index="2" disallow="tram rail_urban rail rail_electric ship" speed="27.78" length="0.10" shape="1201.19,1017.68 1201.19,1017.68"/>
        <lane id=":3977886860_0_3" index="3" disallow="tram rail_urban rail rail_electric ship" speed="27.78" length="0.10" shape="1204.12,1016.15 1204.12,1016.15"/>
    </edge>
    <edge id=":3977886869_0" function="internal">
        <lane id=":3977886869_0_0" index="0" disallow="tram rail_urban rail rail_electric ship" speed="11.18" length="0.10" shape="1259.16,1156.42 1259.16,1156.42"/>
    </edge>
    <edge id=":42428297_0" function="internal">
        <lane id=":42428297_0_0" index="0" disallow="tram rail_urban rail rail_electric ship" speed="27.78" length="0.30" shape="1008.60,663.59 1008.33,663.74"/>
        <lane id=":42428297_0_1" index="1" disallow="tram rail_urban rail rail_electric ship" speed="27.78" length="0.30" shape="1007.03,660.69 1006.77,660.82"/>
    </edge>
    <edge id=":42428300_0" function="internal">
        <lane id=":42428300_0_0" index="0" disallow="tram rail_urban rail rail_electric ship" speed="27.78" length="0.10" shape="1023.78,741.21 1023.78,741.21"/>
        <lane id=":42428300_0_1" index="1" disallow="tram rail_urban rail rail_electric ship" speed="27.78" length="0.10" shape="1025.35,744.12 1025.35,744.12"/>
    </edge>
    <edge id=":42428303_0" function="internal">
        <lane id=":42428303_0_0" index="0" disallow="tram rail_urban rail rail_electric ship" speed="12.53" length="5.30" shape="1045.96,824.97 1045.36,823.59 1044.50,822.84 1043.36,822.72 1041.94,823.24"/>
    </edge>
    <edge id=":42428303_1" function="internal">
        <lane id=":42428303_1_0" index="0" disallow="tram rail_urban rail rail_electric ship" speed="11.18" length="6.29" shape="1047.48,820.26 1041.94,823.24"/>
    </edge>
    <edge id=":42428305_0" function="internal">
        <lane id=":42428305_0_0" index="0" disallow="tram rail_urban rail rail_electric ship" speed="13.89" length="6.70" shape="1067.46,903.85 1066.76,901.99 1066.31,900.71 1065.92,899.40 1065.40,897.48"/>
    </edge>
    <edge id=":42428305_1" function="internal">
        <lane id=":42428305_1_0" index="0" disallow="tram rail_urban rail rail_electric ship" speed="13.89" length="5.49" shape="1067.46,903.85 1067.13,902.41 1067.34,901.18 1068.09,900.16 1069.36,899.36"/>
    </edge>
    <edge id=":42428305_2" function="internal">
        <lane id=":42428305_2_0" index="0" disallow="tram rail_urban rail rail_electric ship" speed="13.89" length="5.74" shape="1063.35,902.32 1064.58,901.43 1065.33,900.32 1065.60,899.01 1065.40,897.48"/>
    </edge>
    <edge id=":42428305_3" function="internal">
        <lane id=":42428305_3_0" index="0" disallow="tram rail_urban rail rail_electric ship" speed="13.89" length="6.70" shape="1063.35,902.32 1069.36,899.36"/>
    </edge>
    <edge id=":42428307_0" function="internal">
        <lane id=":42428307_0_0" index="0" disallow="tram rail_urban rail rail_electric ship" speed="20.84" length="5.07" shape="1096.83,980.34 1096.07,979.17 1095.12,978.55 1093.99,978.48 1092.67,978.96"/>
    </edge>
    <edge id=":42428307_1" function="internal">
        <lane id=":42428307_1_0" index="0" disallow="tram rail_urban rail rail_electric ship" speed="13.89" length="9.82" shape="1096.83,980.34 1092.99,971.31"/>
    </edge>
    <edge id=":42428307_2" function="internal">
        <lane id=":42428307_2_0" index="0" disallow="tram rail_urban rail rail_electric ship" speed="27.78" length="6.81" shape="1098.66,975.74 1092.67,978.96"/>
        <lane id=":42428307_2_1" index="1" disallow="tram rail_urban rail rail_electric ship" speed="27.78" length="6.81" shape="1097.10,972.83 1091.10,976.06"/>
    </edge>
    <edge id=":42428307_4" function="internal">
        <lane id=":42428307_4_0" index="0" disallow="tram rail_urban rail rail_electric ship" speed="20.84" length="5.15" shape="1097.10,972.83 1095.75,973.32 1094.61,973.23 1093.69,972.56 1092.99,971.31"/>
    </edge>
    <edge id=":42428308_0" function="internal">
        <lane id=":42428308_0_0" index="0" disallow="tram rail_urban rail rail_electric ship" speed="13.89" length="12.97" shape="1131.60,1054.22 1126.01,1042.52"/>
    </edge>
    <edge id=":42428308_1" function="internal">
        <lane id=":42428308_1_0" index="0" disallow="tram rail_urban rail rail_electric ship" speed="20.84" length="8.18" shape="1131.60,1054.22 1130.55,1051.58 1130.23,1049.46 1130.63,1047.86 1131.75,1046.80"/>
    </edge>
    <edge id=":42428308_2" function="internal">
        <lane id=":42428308_2_0" index="0" disallow="tram rail_urban rail rail_electric ship" speed="20.84" length="5.46" shape="1131.60,1054.22 1131.19,1052.87 1131.34,1051.67 1132.05,1050.61 1133.32,1049.70"/>
    </edge>
    <edge id=":42428308_3" function="internal">
        <lane id=":42428308_3_0" index="0" disallow="tram rail_urban rail rail_electric ship" speed="20.84" length="5.46" shape="1124.31,1047.06 1125.56,1046.16 1126.27,1045.10 1126.42,1043.89 1126.01,1042.52"/>
    </edge>
    <edge id=":42428308_4" function="internal">
        <lane id=":42428308_4_0" index="0" disallow="tram rail_urban rail rail_electric ship" speed="27.78" length="6.68" shape="1124.31,1047.06 1130.18,1043.89"/>
        <lane id=":42428308_4_1" index="1" disallow="tram rail_urban rail rail_electric ship" speed="27.78" length="6.68" shape="1125.87,1049.97 1131.75,1046.80"/>
        <lane id=":42428308_4_2" index="2" disallow="tram rail_urban rail rail_electric ship" speed="27.78" length="6.68" shape="1127.43,1052.87 1133.32,1049.70"/>
    </edge>
    <edge id=":42428310_0" function="internal">
        <lane id=":42428310_0_0" index="0" disallow="tram rail_urban rail rail_electric ship" speed="13.89" length="0.30" shape="1163.30,1119.49 1163.17,1119.22"/>
    </edge>
    <edge id=":42428312_0" function="internal">
        <lane id=":42428312_0_0" index="0" disallow="tram rail_urban rail rail_electric ship" speed="13.89" length="6.41" shape="1198.01,1192.91 1195.34,1187.09"/>
    </edge>
    <edge id=":42428312_1" function="internal">
        <lane id=":42428312_1_0" index="0" disallow="tram rail_urban rail rail_electric ship" speed="12.53" length="5.27" shape="1198.01,1192.91 1197.61,1191.53 1197.73,1190.33 1198.36,1189.30 1199.50,1188.46"/>
    </edge>
    <edge id=":42428312_2" function="internal">
        <lane id=":42428312_2_0" index="0" disallow="tram rail_urban rail rail_electric ship" speed="12.53" length="5.24" shape="1193.86,1191.49 1195.02,1190.65 1195.65,1189.63 1195.75,1188.44 1195.34,1187.09"/>
    </edge>
    <edge id=":42428312_3" function="internal">
        <lane id=":42428312_3_0" index="0" disallow="tram rail_urban rail rail_electric ship" speed="11.18" length="6.41" shape="1193.86,1191.49 1199.50,1188.46"/>
    </edge>
    <edge id=":42428313_0" function="internal">
        <lane id=":42428313_0_0" index="0" disallow="tram rail_urban rail rail_electric ship" speed="13.89" length="0.10" shape="1229.32,1263.32 1229.32,1263.32"/>
    </edge>
    <edge id=":42428315_0" function="internal">
        <lane id=":42428315_0_0" index="0" disallow="tram rail_urban rail rail_electric ship" speed="13.89" length="0.10" shape="1257.85,1339.41 1257.85,1339.41"/>
    </edge>
    <edge id=":42428321_0" function="internal">
        <lane id=":42428321_0_0" index="0" disallow="tram rail_urban rail rail_electric ship" speed="13.89" length="5.37" shape="1279.88,1420.86 1279.34,1419.42 1278.49,1418.64 1277.35,1418.51 1275.91,1419.04"/>
    </edge>
    <edge id=":42428321_1" function="internal">
        <lane id=":42428321_1_0" index="0" disallow="tram rail_urban rail rail_electric ship" speed="13.89" length="7.13" shape="1279.88,1420.86 1278.17,1413.94"/>
    </edge>
    <edge id=":42428321_2" function="internal">
        <lane id=":42428321_2_0" index="0" disallow="tram rail_urban rail rail_electric ship" speed="13.89" length="7.13" shape="1282.19,1415.66 1275.91,1419.04"/>
    </edge>
    <edge id=":42428321_3" function="internal">
        <lane id=":42428321_3_0" index="0" disallow="tram rail_urban rail rail_electric ship" speed="13.89" length="5.30" shape="1282.19,1415.66 1280.78,1416.18 1279.64,1416.07 1278.77,1415.32 1278.17,1413.94"/>
    </edge>
    <edge id=":42428328_0" function="internal">
        <lane id=":42428328_0_0" index="0" disallow="tram rail_urban rail rail_electric ship" speed="13.89" length="0.10" shape="1296.83,1496.98 1296.83,1496.98"/>
    </edge>
    <edge id=":42430344_0" function="internal">
        <lane id=":42430344_0_0" index="0" disallow="tram rail_urban rail rail_electric ship" speed="27.78" length="5.01" shape="1252.38,531.81 1251.27,532.63 1250.70,533.60 1250.65,534.73 1251.13,536.01"/>
    </edge>
    <edge id=":42430344_1" function="internal">
        <lane id=":42430344_1_0" index="0" disallow="tram rail_urban rail rail_electric ship" speed="27.78" length="9.50" shape="1252.38,531.81 1244.02,536.33"/>
        <lane id=":42430344_1_1" index="1" disallow="tram rail_urban rail rail_electric ship" speed="27.78" length="9.50" shape="1250.81,528.91 1242.45,533.42"/>
    </edge>
    <edge id=":42430344_3" function="internal">
        <lane id=":42430344_3_0" index="0" disallow="tram rail_urban rail rail_electric ship" speed="27.78" length="9.53" shape="1246.61,527.64 1251.13,536.01"/>
        <lane id=":42430344_3_1" index="1" disallow="tram rail_urban rail rail_electric ship" speed="27.78" length="9.53" shape="1243.70,529.20 1248.24,537.60"/>
    </edge>
    <edge id=":42430344_5" function="internal">
        <lane id=":42430344_5_0" index="0" disallow="tram rail_urban rail rail_electric ship" speed="27.78" length="5.02" shape="1243.70,529.20 1244.17,530.50 1244.12,531.63 1243.55,532.61 1242.45,533.42"/>
    </edge>
    <edge id=":42430347_0" function="internal">
        <lane id=":42430347_0_0" index="0" disallow="tram rail_urban rail rail_electric ship" speed="27.78" length="5.03" shape="1284.42,596.81 1285.25,597.92 1286.23,598.50 1287.37,598.55 1288.65,598.08"/>
    </edge>
    <edge id=":42430347_1" function="internal">
        <lane id=":42430347_1_0" index="0" disallow="tram rail_urban rail rail_electric ship" speed="27.78" length="9.52" shape="1284.42,596.81 1288.97,605.19"/>
        <lane id=":42430347_1_1" index="1" disallow="tram rail_urban rail rail_electric ship" speed="27.78" length="9.52" shape="1281.53,598.39 1286.07,606.75"/>
    </edge>
    <edge id=":42430347_3" function="internal">
        <lane id=":42430347_3_0" index="0" disallow="tram rail_urban rail rail_electric ship" speed="27.78" length="9.51" shape="1280.28,602.60 1288.65,598.08"/>
        <lane id=":42430347_3_1" index="1" disallow="tram rail_urban rail rail_electric ship" speed="27.78" length="9.51" shape="1281.85,605.50 1290.22,600.98"/>
    </edge>
    <edge id=":42430347_5" function="internal">
        <lane id=":42430347_5_0" index="0" disallow="tram rail_urban rail rail_electric ship" speed="27.78" length="5.02" shape="1281.85,605.50 1283.14,605.03 1284.28,605.07 1285.25,605.65 1286.07,606.75"/>
    </edge>
    <edge id=":42430350_0" function="internal">
        <lane id=":42430350_0_0" index="0" disallow="tram rail_urban rail rail_electric ship" speed="19.48" length="5.01" shape="1327.15,669.48 1326.05,670.30 1325.47,671.27 1325.42,672.40 1325.90,673.69"/>
    </edge>
    <edge id=":42430350_1" function="internal">
        <lane id=":42430350_1_0" index="0" disallow="tram rail_urban rail rail_electric ship" speed="11.18" length="9.50" shape="1327.15,669.48 1318.79,674.00"/>
    </edge>
    <edge id=":42430350_2" function="internal">
        <lane id=":42430350_2_0" index="0" disallow="tram rail_urban rail rail_electric ship" speed="27.78" length="6.21" shape="1322.95,668.22 1325.90,673.69"/>
        <lane id=":42430350_2_1" index="1" disallow="tram rail_urban rail rail_electric ship" speed="27.78" length="6.21" shape="1320.05,669.79 1322.99,675.25"/>
    </edge>
    <edge id=":42430350_4" function="internal">
        <lane id=":42430350_4_0" index="0" disallow="tram rail_urban rail rail_electric ship" speed="19.48" length="5.01" shape="1320.05,669.79 1320.52,671.08 1320.47,672.21 1319.89,673.18 1318.79,674.00"/>
    </edge>
    <edge id=":42430352_0" function="internal">
        <lane id=":42430352_0_0" index="0" disallow="tram rail_urban rail rail_electric ship" speed="20.84" length="5.00" shape="1360.68,738.46 1361.49,739.56 1362.46,740.14 1363.59,740.19 1364.88,739.72"/>
    </edge>
    <edge id=":42430352_1" function="internal">
        <lane id=":42430352_1_0" index="0" disallow="tram rail_urban rail rail_electric ship" speed="27.78" length="6.21" shape="1360.68,738.46 1363.62,743.92"/>
        <lane id=":42430352_1_1" index="1" disallow="tram rail_urban rail rail_electric ship" speed="27.78" length="6.21" shape="1357.77,740.02 1360.71,745.49"/>
    </edge>
    <edge id=":42430352_3" function="internal">
        <lane id=":42430352_3_0" index="0" disallow="tram rail_urban rail rail_electric ship" speed="13.89" length="9.50" shape="1356.51,744.23 1364.88,739.72"/>
    </edge>
    <edge id=":42430352_4" function="internal">
        <lane id=":42430352_4_0" index="0" disallow="tram rail_urban rail rail_electric ship" speed="20.84" length="5.00" shape="1356.51,744.23 1357.80,743.75 1358.93,743.81 1359.90,744.38 1360.71,745.49"/>
    </edge>
    <edge id=":42430356_0" function="internal">
        <lane id=":42430356_0_0" index="0" disallow="tram rail_urban rail rail_electric ship" speed="27.78" length="5.03" shape="1403.54,811.45 1402.43,812.28 1401.85,813.26 1401.79,814.39 1402.27,815.68"/>
    </edge>
    <edge id=":42430356_1" function="internal">
        <lane id=":42430356_1_0" index="0" disallow="tram rail_urban rail rail_electric ship" speed="27.78" length="9.52" shape="1403.54,811.45 1395.16,815.99"/>
        <lane id=":42430356_1_1" index="1" disallow="tram rail_urban rail rail_electric ship" speed="27.78" length="9.52" shape="1401.96,808.56 1393.60,813.09"/>
    </edge>
    <edge id=":42430356_3" function="internal">
        <lane id=":42430356_3_0" index="0" disallow="tram rail_urban rail rail_electric ship" speed="27.78" length="9.52" shape="1397.76,807.30 1402.27,815.68"/>
        <lane id=":42430356_3_1" index="1" disallow="tram rail_urban rail rail_electric ship" speed="27.78" length="9.52" shape="1394.85,808.86 1399.37,817.25"/>
    </edge>
    <edge id=":42430356_5" function="internal">
        <lane id=":42430356_5_0" index="0" disallow="tram rail_urban rail rail_electric ship" speed="27.78" length="5.03" shape="1394.85,808.86 1395.33,810.16 1395.28,811.29 1394.70,812.27 1393.60,813.09"/>
    </edge>
    <edge id=":42430358_0" function="internal">
        <lane id=":42430358_0_0" index="0" disallow="tram rail_urban rail rail_electric ship" speed="27.78" length="6.38" shape="1435.41,876.94 1436.57,878.68 1437.78,879.70 1439.06,880.02 1440.39,879.62"/>
    </edge>
    <edge id=":42430358_1" function="internal">
        <lane id=":42430358_1_0" index="0" disallow="tram rail_urban rail rail_electric ship" speed="27.78" length="12.82" shape="1435.41,876.94 1441.47,888.25"/>
        <lane id=":42430358_1_1" index="1" disallow="tram rail_urban rail rail_electric ship" speed="27.78" length="12.82" shape="1432.50,878.51 1438.56,889.80"/>
    </edge>
    <edge id=":42430358_3" function="internal">
        <lane id=":42430358_3_0" index="0" disallow="tram rail_urban rail rail_electric ship" speed="27.78" length="9.72" shape="1431.24,882.71 1433.87,881.59 1435.83,881.18 1437.78,880.77 1440.39,879.62"/>
        <lane id=":42430358_3_1" index="1" disallow="tram rail_urban rail rail_electric ship" speed="27.78" length="9.72" shape="1432.80,885.62 1435.44,884.50 1437.40,884.09 1439.36,883.66 1441.98,882.51"/>
    </edge>
    <edge id=":42430358_5" function="internal">
        <lane id=":42430358_5_0" index="0" disallow="tram rail_urban rail rail_electric ship" speed="27.78" length="5.01" shape="1434.36,888.53 1435.65,888.06 1436.78,888.11 1437.75,888.69 1438.56,889.80"/>
    </edge>
    <edge id=":42430361_0" function="internal">
        <lane id=":42430361_0_0" index="0" disallow="tram rail_urban rail rail_electric ship" speed="20.84" length="5.01" shape="1478.79,951.18 1477.68,952.00 1477.11,952.97 1477.06,954.10 1477.54,955.38"/>
    </edge>
    <edge id=":42430361_1" function="internal">