<?xml version="1.0" encoding="UTF-8"?>

<!-- generated on 12/12/17 10:49:19 by SUMO duarouter Version 0.31.0
<?xml version="1.0" encoding="UTF-8"?>

<configuration xmlns:xsi="http://www.w3.org/2001/XMLSchema-instance" xsi:noNamespaceSchemaLocation="http://sumo.dlr.de/xsd/duarouterConfiguration.xsd">

    <input>
        <net-file value="map.net.xml"/>
        <route-files value="trips.trips.xml"/>
    </input>

    <output>
        <output-file value="map.rou.xml"/>
    </output>

    <processing>
        <ignore-errors value="true"/>
    </processing>

    <time>
        <begin value="0"/>
        <end value="100.0"/>
    </time>

    <report>
        <no-warnings value="true"/>
        <no-step-log value="true"/>
    </report>

</configuration>
-->

<routes xmlns:xsi="http://www.w3.org/2001/XMLSchema-instance" xsi:noNamespaceSchemaLocation="http://sumo.dlr.de/xsd/routes_file.xsd">
    <vehicle id="0" depart="0.00">
        <route edges="-4546534#5 4546534#5 154470766#7 154470766#8 -179309641#1 -179309641#0 -215236695#2 -215236695#1 -215236695#0 -154470767#1 -154470767#0 -154470768 -154470769#1 -154470769#0 -90582100 -153760716#2 -153760716#1 -153760716#0 -47516642 -29081647 -28938112 -1581#2 -1581#1 -1581#0 150771749#0 150771749#1 150771749#2 150771749#3 191261774#0 191261774#1 191261774#2 191261774#3 191261773#0 191261773#1 191261773#2 191261773#3 191261773#4 149920724#0 149920724#1 153760712#0 153760712#1 153760712#2 153760712#3 153760712#4 153760712#5 149920739#0 149920739#1 149920739#2 149920739#3 361387406#0 361387406#1 372067895 35109126#0 35109126#1 35109126#2 390291679 311105579#0 311105579#1 300706776#0 300706776#1 300706776#2 300706776#3 300706776#4 300706776#5 300706776#6 300706776#7 300706776#8 311105580 4237901#0 4237901#1 3091883#2 3091883#3 3091883#4 47413893#0 47413893#1 4540263#0 4540263#1 4540263#2 3999828#0 3999828#1 3999828#2 3999828#3 153260603#0 153260603#1 153260603#2 153260603#3 153260603#4 9651722#0 9651722#1 9651722#2 8162994#0 8162994#1 9651721 5819637 145583162 24746398 153260593 8162993"/>
    </vehicle>
    <vehicle id="2" depart="2.00">
        <route edges="4567230#1 -4567230#1 -4567230#0 -371181917#1 -371181917#0 369547516#0 369547516#1 369547516#2 369547522#0 369547522#1 149405179#0 149405179#1 -369547521 -175145746 9651710#0 9651710#1 46800054#3 46800054#4 46800054#5 46800054#6 46800054#7 3102522 9651712#0 9651712#1 4005444#0 4005444#1 169999411#0 169999411#1 169999411#2 169999411#3 169999411#4 169999411#5 169999411#6 124416945 5041394 81543812#0 -5041393#1 -5041393#0 82105562#2 82105562#3 -323545635#1 -323545635#0 323545636 -4574131#1 -4574131#0 167660563 -167660563"/>
    </vehicle>
    <vehicle id="4" depart="4.00">
        <route edges="24577449 24577446 132845594#0 4636411 4636410#0 4636410#1 4636410#2 -4636406#6 -4636406#5 -4636406#4 -4636406#3 -4636406#2 -4636406#1 99403601#1 99403601#2 46198772#4 46198772#5 46198772#6 46198772#7 46198772#8 46198772#9 46198772#0 4271522#0 4271522#1 4271522#2 132845591#0 132845591#1 132845591#2 238905087#0 238905087#1 153194972#0 153194972#1 153194972#2 153194972#3 153194972#4 153194972#5 134112512 29414000 29413997 186961876 238909721 177122709 186961871#0 186961871#1 186961871#2 186961871#3 186961871#4 186961871#5 186961871#6 186961871#7 177122712#0 177122712#1 394860278 37375879#0 37375879#1 238909719#0 238909719#1 238909718 -27126482#1 -27126482#0 2352117 51549995#0 51549995#1 51549995#2 183640652#0 183640652#1 27126535#0 27126535#1 27126535#2 149364531#0 149364531#1 149364531#2 149364531#3 229082192#0 229082192#1 239265817"/>
    </vehicle>
    <vehicle id="5" depart="5.00">
        <route edges="-3102402#3 -3102402#2 -3102402#1 -3102402#0 153930694#0 153930694#1 153930694#2 153930694#3 153930694#4 153930694#5 153930694#6 -3088260#2 -3088260#1 -3088260#0 90217913#0 90217913#1 90217913#2 90217913#3 90217913#4 90217913#5 300708553#0 300708553#1 300708553#2 300708553#3 300708553#4 300708553#5 300708553#6 300708553#7 300708553#8 -221359923 -300705341 -394853584#1 -394853584#0 -1639354#9 -1639354#8 -1639354#7 -1639354#6 -1639354#5 -1639354#4 -1639354#3 -1639354#2 -1639354#1 -1639354#0 -154186777#25 -154186777#24 -154186777#23 -154186777#22 -154186777#21 -154186777#20 -154186777#19 -154186777#18 -154186777#17 -154186777#16 -154186777#15 -154186777#14 -154186777#13 -154186777#12 -154186777#11 -154186777#10 -154186777#9 -154186777#8 -154186777#7 -154186777#6 -154186777#5 -154186777#4 -154186777#3 -154186777#2 -154186777#1 -154186777#0 1639364#0 1639364#1 1639364#2 1639364#3 1639364#4 1639364#5 1639364#6 1639364#7 1639364#8 1639364#9 1639364#10 1639364#11 1639364#12 1639364#13 1639364#14 1639364#15 1639364#16 -3091879#20 -3091879#19 -3091879#18 -3091879#17 -3091879#16 -3091879#15 -3091879#14 -3091879#13 -3091879#12 -3091879#11 -3091879#10 -3091879#9 -3091879#8 -3091879#7 -3091879#6 -3091879#5 -3091879#4 -3091879#3 -3091879#2 -3091879#1 -3091879#0 28937926#0 28937926#1 28937926#2 28937926#3 28937926#4 28937926#5 396036411 396036410#0 396036410#1 30440127#0 30440127#1 30440127#2 30440127#3 28937862#0 28937862#1 28937862#2 28937862#3 28937862#4 28937862#5 28937862#6 28937862#7 28937862#8 227816705 29052117#0 29052117#1 149916998 -29058046#19 -29058046#18 -29058046#17 -29058046#16 -29058046#15 -29058046#14 -29058046#13 -29058046#12 -29058046#11 -29058046#10 -29058046#9 -29058046#8 -29058046#7 -29058046#6 -29058046#5 -29058046#4 -29058046#3 -29058046#2 -29058046#1 -29058046#0 -213217845#2 -213217845#1 -213217845#0 -9651712#1 -9651712#0 8126614 46800054#1 46800054#2 46800054#3 4288520 -178181353#5 178181353#5"/>
    </vehicle>
    <vehicle id="6" depart="6.00">
        <route edges="4061524#2 -4061524#2 -4061524#1 -4061524#0 154527543#6 154527543#7 154527543#8 154527543#9 154527543#10 154527543#11 154527543#12 154527543#13 154527543#14 154527543#15 154527543#16 154527543#17 154527543#18 154527548#0 154527548#1 154527548#2 154527548#3 154527548#4 153760710#0 153760710#1 230886257#0 230886257#1 33740675#0 33740675#1 230886258 138914427#0 138914427#1 138914427#2 138914427#3 138914427#4 138914427#5 138914427#6 138914427#7 149920731#0 149920731#1 158420280#0 158420280#1 158420280#2 158420280#3 158420280#4 158420280#5 158420280#6 158420280#7 158420280#8 158420280#9 158420280#10 158420280#11 183432094 3088260#0 3088260#1 3088260#2 -153930694#6 -153930694#5 -153930694#4 -153930694#3 -153930694#2 -153930694#1 -153930694#0 3102402#0 3102402#1 3102402#2 3102402#3 3102402#4 3102402#5 3102402#6 3102402#7 3102402#8 3102402#9 3102402#10 3102402#11 15942062#1 300710522 15942070#0 15942070#1 15942070#2 15942070#3 4254564#0 4254564#1 4254564#2 4254564#3 4254564#4 8302434 179690991#0 179690991#1 179690991#2 179690991#3 179690991#4 179690991#5 179690991#6 179690991#7 3102395#0 3102395#1 3102395#2 3102395#3 3102395#4 3102395#5 92149895#0 92149895#1 92149895#2 94159645#2 94159645#3 51549290 177534110 94159647#1 94159647#2 70330081 94159650#2 94159650#3 94159652 154260652 262289408 -154260056 262289410 9703382 127678562 9660165 208692647 300713852 392621397 203137040 309190139#1 309190139#2 3189511#0 1881485 -392621400#2 -392621400#1 -392621400#0 -124258654#5 -124258654#4 -92664162#2 -92664162#1 -92664162#0 -4405517#0 -1260853#4 -1260853#3 -4405519 89962235#1 89962235#2 89962235#3 89953972 190125004#0 190125004#1 89953964#0 89953964#1 89953964#2 89953964#3 89953964#4 3994502#2 30440139#0 30440139#1 30440139#2 30440139#3 30440139#4 30440139#5 30440139#6 4333406 4333405#0 4333405#1 4333405#2 4333405#3 4333405#4 4333405#5 4333405#6 4546452#0 -4546379#2 -4546379#1 -4546379#0 303172175#4 303172175#5 303172175#6 303172175#7"/>
    </vehicle>
    <vehicle id="7" depart="7.00">
        <route edges="-179639737#2 -179639737#1 -179639737#0 -4549105#1 28838013#0 28838013#1 28838013#2 28838013#3 28838013#4 28838013#5 28838013#6 -220096958#0 -179639736#1 -179639736#0 179639735 220096959#1 220096960 46198772#6 46198772#7 46198772#8 46198772#9 46198772#0 4271522#0 4271522#1 4271522#2 132845591#0 132845591#1 132845591#2 238905087#0 238905087#1 153194972#0 153194972#1 153194972#2 153194972#3 153194972#4 153194972#5 2352513 280025125 280025126 177115163 92384975#0 92384975#1 92384973#0 92384973#1 156860059#0 156860059#1 -1639364#16 -1639364#15 -1639364#14 -1639364#13 -1639364#12 -1639364#11 -1639364#10 -1639364#9 -1639364#8 -1639364#7 -1639364#6 -1639364#5 -1639364#4 -1639364#3 -1639364#2 -1639364#1 -1639364#0 154186777#0 154186777#1 154186777#2 154186777#3 154186777#4 154186777#5 154186777#6 154186777#7 154186777#8 154186777#9 154186777#10 154186777#11 154186777#12 154186777#13 154186777#14 154186777#15 154186777#16 154186777#17 154186777#18 154186777#19 154186777#20 154186777#21 154186777#22 154186777#23 154186777#24 154186777#25 1639354#0 1639354#1 1639354#2 1639354#3 1639354#4 1639354#5 1639354#6 1639354#7 1639354#8 1639354#9 394853584#0 394853584#1 300705341 145415095#0 145415095#1 145415095#2 24307854#0 24307854#1 24307854#2 24307854#3 300705352 8119879#0 8119879#1 8119879#2 8119879#3 -8119879#3"/>
    </vehicle>
    <vehicle id="8" depart="8.00">
        <route edges="4077026#1 4077026#2 146412969#0 146412969#1 -146412982#2 -146412982#1 -146412982#0 146413577#2 146413577#3 146413577#4 146413577#5 146413577#6 146413577#7 146413577#8 146413577#9 146413577#10 23227653#4 23227653#5 80624513 -149916998 -29052117#1 -29052117#0 -227816705 -28937862#8 -28937862#7 -28937862#6 -28937862#5 -28937862#4 -28937862#3 -28937862#2 -28937862#1 -28937862#0 -30440127#3 -30440127#2 -30440127#1 -30440127#0 -396036410#1 -396036410#0 -396036411 -28937926#5 -28937926#4 -28937926#3 -28937926#2 -28937926#1 -28937926#0 3091879#0 3091879#1 3091879#2 3091879#3 3091879#4 3091879#5 3091879#6 3091879#7 3091879#8 3091879#9 3091879#10 3091879#11 3091879#12 3091879#13 3091879#14 3091879#15 3091879#16 3091879#17 3091879#18 3091879#19 3091879#20 -1639364#16 -1639364#15 -1639364#14 -1639364#13 -1639364#12 -1639364#11 -1639364#10 -1639364#9 -1639364#8 -1639364#7 -1639364#6 -1639364#5 -1639364#4 -1639364#3 -1639364#2 -1639364#1 -1639364#0 154186777#0 154186777#1 154186777#2 154186777#3 154186777#4 154186777#5 154186777#6 154186777#7 154186777#8 154186777#9 154186777#10 154186777#11 154186777#12 154186777#13 154186777#14 154186777#15 154186777#16 154186777#17 154186777#18 154186777#19 154186777#20 154186777#21 154186777#22 154186777#23 154186777#24 154186777#25 1639354#0 1639354#1 1639354#2 1639354#3 1639354#4 1639354#5 1639354#6 1639354#7 1639354#8 1639354#9 394853584#0 394853584#1 300705341 221359923 -300708553#8 -300708553#7 -300708553#6 -300708553#5 -300708553#4 -300708553#3 -300708553#2 -300708553#1 -300708553#0 -90217913#5 -90217913#4 -90217913#3 -90217913#2 -90217913#1 -90217913#0 153981003 300708560#0 300708560#1 300708560#2 -186951132#1 -186951132#0 -153798763#2 -153798763#1 -153798763#0 9657398 390807193#0 390807193#1 390807193#2 8123248 -390807194 390807194 9660161#0 9660161#1 9660161#2 153798208 168276075 -192651854#2 -192651854#1 -192651854#0 -25053182#3 -25053182#2 -25053182#1 -25053182#0 -4605556 -4605583#1 -4605583#0 -138914428#1 -138914428#0 -98723815#1 -98723815#0 -318496854 -138715722 -3281#5 3314#0 3314#1 3314#2 3314#3 3314#4 3314#5 3314#6 3314#7 2854806#0 2854806#1 -157070615#3 -157070615#2 4569977#0 4569979#0 4683723#0"/>
    </vehicle>
    <vehicle id="9" depart="9.00">
        <route edges="-152463285#7 -152463285#6 -152463285#5 -152463285#4 -152463285#3 -152463285#2 -152463285#1 -152463285#0 -160779056 -300714620 152463290 1881494#0 1881494#1 1881494#2 30629327 30629320 153178075 -1881492#2 -1881492#1 -1881492#0 152817492 318492928 243656580#0 -243656580#0"/>
    </vehicle>
    <vehicle id="11" depart="11.00">
        <route edges="9651712#1 4005444#0 4005444#1 169999411#0 169999411#1 169999411#2 169999411#3 169999411#4 169999411#5 169999411#6 124416945 -300705340 -124416960#1 -124416960#0 123260684 123260689#2 123260689#3 123260689#4 123260685 -4077031#23 -4077031#22 -4077031#21 -4077031#20 -4077031#19 -4077031#18 -4077031#17 -4077031#16 -4077031#15 -4077031#14 -4077031#13 -4077031#12 -4077031#11 -4077031#10 -4077031#9 -4077031#8 -4077031#7 -4077031#6 -4077031#5 -4077031#4 -4077031#3 -4077031#2 -4077031#1 -4077031#0 124416957#0 124416957#1 124416957#2 -145690672 227816706#0 227816706#1 227816706#2 227816706#3 227816706#4 227816706#5 227816706#6 -145690663#3 -145690663#2"/>
    </vehicle>
    <vehicle id="12" depart="12.00">
        <route edges="-8430290#1 8430290#1 -8430287 -8430283#0 4549119#4 300704022 -128124559#5 -128124559#4 -128124559#3 -128124559#2 -128124559#1 -128124559#0 -156860061#3 -156860061#2 -156860061#1 -156860061#0 156860055#0 156860055#1 243103356 243103357 182076570 8314348 9680016#0 9680016#1 9680016#2 9680016#3 124416949#0 124416949#1 124416949#2 328774870#0 328774870#1 328774870#2 328774870#3 328774870#4 328774870#5 328774870#6 328774870#7 328774870#8 323525144#0 323525144#1 227823048 323525146 323292744 323292743 149396562#0 149396562#1 358891948#0 358891948#1 149396565#0 149396565#1 149396565#2 149396565#3 149396565#4 149396565#5 149396565#6 149396565#7 149396565#8 149396565#9 149396565#10 149396565#11 153260604#0 153260604#1 153260604#2 153260604#3 153260604#4 9652508#0 9652508#1 3091883#4 3091883#5 3091883#6 1639880 9652509#0 9652509#1 9652509#2 9652509#3 9652509#4 205374511#0 205374511#1 205374511#2 205374511#3 205374511#4 205374511#5 205374511#6 205374511#7 205374511#8 205374511#9 205374511#10 205374511#11 9652510 230826766#0 230826766#1 4414521 9652512#0 9652512#1 3431519#0 3431519#1 3431519#2 4536701#0 4536701#1 -4536701#1"/>
    </vehicle>
    <vehicle id="13" depart="13.00">
        <route edges="-4572080#1 4572081#0 4572081#1 -4572030#0 4288521#1 8138779#0 8138779#1 8138779#2 8138779#3 178181353#0 178181353#1 178181353#2 178181353#3 178181353#4 178181353#5 9651711 46800054#5 4005442 376633764#0 376633764#1 376633764#2 4567185 376633765 300705346 323527022#0 323527022#1 9651719 328626009 -28938230#3 -28938230#2 -28938230#1 -28938230#0 8162993 153260598#0 153260598#1 24746401 145583151 -9651721 28938234#0 28938234#1 28938234#2 8131483#0 8131483#1 -153260603#4 -153260603#3 -153260603#2 -153260603#1 -153260603#0 -3999828#3 -3999828#2 -3999828#1 -3999828#0 -4540263#2 -4540263#1 -4540263#0 47413892#0 47413892#1 3091883#6 3091883#7 3091883#0 4237900 -311105580 -300706776#8 -300706776#7 -300706776#6 -300706776#5 -300706776#4 -300706776#3 -300706776#2 -300706776#1 -300706776#0 -311105579#1 -311105579#0 -390291679 -35109126#2 -35109126#1 -35109126#0 -372067895 -361387406#1 -361387406#0 -149920739#3 -149920739#2 -149920739#1 -149920739#0 -153760712#5 -153760712#4 -153760712#3 -153760712#2 -153760712#1 -153760712#0 -149920724#1 -149920724#0 -191261773#4 -191261773#3 -191261773#2 -191261773#1 -191261773#0 -191261774#3 -191261774#2 -191261774#1 -191261774#0 -150771749#3 -150771749#2 -150771749#1 -150771749#0 -23370837#5 -23370837#4 -23370837#3 -23370837#2 -23370837#1 -23370837#0 8249568 145415098#0 145415098#1 2148182#0 2148182#1 3084961 9678653#0 9678653#1 32056953 70321499 204258950 204258951#0 204258951#1 371536201#0 371536201#1 230886267 201958976 -179618800#12 -179618800#11 -179618800#10 -179618800#9 -179618800#8 -179618800#7 -179618800#6 -179618800#5 -179618800#4 -179618800#3 -179618800#2 -179618800#1 -179618800#0 -31735998 -204824123 -310937892#2 -310937892#1 -310937892#0 -31735997#8 -31735997#7 -31735997#6 -31735997#5 -31735997#4 -31735997#3 -31735997#2 -31735997#1 -31735997#0 -2818441#4 -2818441#3 -2818441#2 -2818441#1 -2818441#0 2417624#2 2417624#3 2417624#0 -3906605#1 -3906605#0 3906606#1 4586152#0 4586152#1 4586152#2 4586152#3 4586152#4 4641064#0 4641064#1 -4586148#4 -4586148#3 -4586148#2 -4586148#1 -408831380 -4586134#5 -4586134#4 -4586134#3 4586134#3"/>
    </vehicle>
    <vehicle id="14" depart="14.00">
        <route edges="-4567245#4 -4567245#3 -4567245#2 -4567245#1 -4567245#0 -328623832 -9651720 8149130 323527022#1 9651719 328626009 -28938230#3 -28938230#2 -28938230#1 -28938230#0 8162993 153260598#0 153260598#1 24746401 145583151 -9651721 28938234#0 28938234#1 28938234#2 8131483#0 8131483#1 -153260603#4 -153260603#3 -153260603#2 -153260603#1 -153260603#0 -3999828#3 -3999828#2 -3999828#1 -3999828#0 -4540263#2 -4540263#1 -4540263#0 47413892#0 47413892#1 3091883#6 3091883#7 3091883#0 4237900 -311105580 -300706776#8 -300706776#7 -300706776#6 -300706776#5 -300706776#4 -300706776#3 -300706776#2 -300706776#1 -300706776#0 -311105579#1 -311105579#0 -390291679 -35109126#2 -35109126#1 -35109126#0 -372067895 -361387406#1 -361387406#0 -149920739#3 -149920739#2 -149920739#1 -149920739#0 -153760712#5 -153760712#4 -153760712#3 -153760712#2 -153760712#1 -153760712#0 -149920724#1 -149920724#0 -191261773#4 -191261773#3 -191261773#2 -191261773#1 -191261773#0 -191261774#3 -191261774#2 -191261774#1 -191261774#0 -150771749#3 -150771749#2 -150771749#1 -150771749#0 -23370837#5 -23370837#4 -23370837#3 -23370837#2 -23370837#1 -23370837#0 8249568 145415098#0 145415098#1 2148182#0 2148182#1 3084961 9678653#0 9678653#1 32056953 70321499 204258950 204258951#0 204258951#1 371536201#0 371536201#1 230886267 201958976 -179618800#12 -179618800#11 -179618800#10 -179618800#9 -179618800#8 -179618800#7 -179618800#6 -179618800#5 -179618800#4 -179618800#3 -179618800#2 -179618800#1 -179618800#0 -31735998 -204824123 -310937892#2 -310937892#1 -310937892#0 -31735997#8 -31735997#7 -31735997#6 -31735997#5 -31735997#4 -31735997#3 -31735997#2 -31735997#1 -31735997#0 -2818441#4 -2818441#3 -2818441#2 -2818441#1 -2818441#0 2417624#2 2417624#3 -210385616 -179618801 -2417623#10 -2417623#9 -2417623#8 -2417623#7 -2417623#6 -2417623#5 -2417623#4 3144202#0 3144202#1 3144202#2 8126861#0 8126861#1 8126861#2 3144205 -2853198#1 -2853198#0 -2853197#14 -2853197#13 -2853197#12 -2853197#11 -2853197#10 -2853197#9 -2853197#8 -2853197#7 -2853197#6 -2853197#5 -2853197#4 -2853197#3 -2853197#2 -2853197#1 -2853197#0 150610100#2 150610100#3 2853196#0 2853196#1 -2853196#1"/>
    </vehicle>
    <vehicle id="15" depart="15.00">
        <route edges="4567231#2 -4567231#2 -4567231#1 -4567231#0 -371181917#1 -371181917#0 369547516#0 369547516#1 369547516#2 369547522#0 369547522#1 149405179#0 149405179#1 -369547521 -175145746 9651710#0 9651710#1 46800054#3 46800054#4 46800054#5 4005442 376633764#0 376633764#1 376633764#2 4567185 376633765 300705346 323527022#0 323527022#1 9651719 328626009 -28938230#3 -28938230#2 -28938230#1 -28938230#0 8162993 153260598#0 153260598#1 24746401 145583151 -9651721 28938234#0 28938234#1 28938234#2 8131483#0 8131483#1 -153260603#4 -153260603#3 -153260603#2 -153260603#1 -153260603#0 -3999828#3 -3999828#2 -3999828#1 -3999828#0 -4540263#2 -4540263#1 -4540263#0 47413892#0 47413892#1 3091883#6 3091883#7 3091883#0 4237900 -311105580 -300706776#8 -300706776#7 -300706776#6 -300706776#5 -300706776#4 -300706776#3 -300706776#2 -300706776#1 -300706776#0 -311105579#1 -311105579#0 -390291679 -35109126#2 -35109126#1 -35109126#0 -372067895 -361387406#1 -361387406#0 -149920739#3 -149920739#2 -149920739#1 -149920739#0 -153760712#5 -153760712#4 -153760712#3 -153760712#2 -153760712#1 -153760712#0 -149920724#1 -149920724#0 -191261773#4 -191261773#3 -191261773#2 -191261773#1 -191261773#0 -191261774#3 -191261774#2 -191261774#1 -191261774#0 -150771749#3 -150771749#2 -150771749#1 -150771749#0 1581#0 1581#1 1581#2 28938112 29081647 47516642 153760716#0 153760716#1 153760716#2 90582100 154470769#0 154470769#1 154470768 154470767#0 154470767#1 215236695#0 215236695#1 215236695#2 179309641#0 179309641#1 -154470766#8 -154470766#7 154470766#7"/>
    </vehicle>
    <vehicle id="16" depart="16.00">
        <route edges="-28528332 28528319#5 28528319#6 28528319#7 4077026#2 146412969#0 146412969#1 -146412982#2 -146412982#1 -146412982#0 146413577#2 146413577#3 146413577#4 146413577#5 146413577#6 146413577#7 146413577#8 146413577#9 146413577#10 23227653#4 23227653#5 80624513 -149916998 -29052117#1 -29052117#0 -227816705 -28937862#8 -28937862#7 -28937862#6 -28937862#5 -28937862#4 -28937862#3 -28937862#2 -28937862#1 -28937862#0 -30440127#3 -30440127#2 -30440127#1 -30440127#0 -396036410#1 -396036410#0 -396036411 -28937926#5 -28937926#4 -28937926#3 -28937926#2 -28937926#1 -28937926#0 3091879#0 3091879#1 3091879#2 3091879#3 3091879#4 3091879#5 3091879#6 3091879#7 3091879#8 3091879#9 3091879#10 3091879#11 3091879#12 3091879#13 3091879#14 3091879#15 3091879#16 3091879#17 3091879#18 3091879#19 3091879#20 -1639364#16 -1639364#15 -1639364#14 -1639364#13 -1639364#12 -1639364#11 -1639364#10 -1639364#9 -1639364#8 -1639364#7 -1639364#6 -1639364#5 -1639364#4 -1639364#3 -1639364#2 -1639364#1 -1639364#0 -156860038#3 -156860038#2 -156860038#1 -156860038#0 -3578758#4 -3578758#3 -3578758#2 -3578758#1 -3578758#0 -156860063#2 -156860063#1 -156860063#0 -1639405#7 -1639405#6 -1639405#5 -1639405#4 -1639405#3 -1639405#2 -1639405#1 -1639405#0 361380145 -1639435#9 -1639435#8 -1639435#7 -1639435#6 -1639435#5 -1639435#4 -1639435#3 -1639435#2 -1639435#1 -1639435#0 87347989#4 3651051#0 3651051#1 3651051#2 3651051#3 -3651052#2 -3651052#1 -3651052#0 231236386#0 231236386#1 27076941#0 27076941#1 231236388 232056204#0 232056204#1 232056204#2 273265172 3102408#0 3102408#1 153191973 394855411 394855413#2 51549994#0 51549994#1 51549994#2 -3084959#2 -3084959#1 -3084959#0 -469802181#5 -469802181#4 -469802181#3 -469802181#2 -469802181#1 -469802181#0 -3999133#2 -3999133#1 -3999133#0 239265846#0 239265846#1 239265846#2 239265830 239265845 27134567#0 27134567#1 98280744 239265838 239265837#0 239265837#1 3880048#0 3880048#1 3880048#2 3880048#3 3880048#4 3880048#5 3880048#6 3880048#7 94159645#1 94159645#2 94159645#3 51549290 177534110 94159647#1 94159647#2 70330081 94159650#2 94159650#3 94159652 154260652 262289408 -154260056 262289410 9703382 127678562 9660165 208692647 300713852 392621397 203137040 309190139#1 309190139#2 3189511#0 1881485 -392621400#2 -392621400#1 -392621400#0 -124258654#5 -124258654#4 -124258654#3 -124258654#2 -124258654#1 -124258654#0 3998030#0 3998030#1 148789782 30622976 318492932 1933 205004431 81541004 318492933#0 318492933#1 1934#0 1934#1 1934#2 232056203#0 232056203#1 232056203#2 -1260395#8 -1260395#7 -1260395#6 -1260395#5 -1260395#4"/>
    </vehicle>
    <vehicle id="17" depart="17.00">
        <route edges="89893233#0 89893233#1 89893233#2 4076803#3 8134022#1 8134022#2 8134022#3 4076802 2920974#0 2920974#1 2920974#2 31735997#1 31735997#2 31735997#3 31735997#4 31735997#5 31735997#6 31735997#7 31735997#8 310937892#0 310937892#1 310937892#2 204824123 31735998 179618800#0 179618800#1 179618800#2 179618800#3 179618800#4 179618800#5 179618800#6 179618800#7 179618800#8 179618800#9 179618800#10 179618800#11 179618800#12 240371368 371536200#0 371536200#1 -204258951#1 -204258951#0 -204258950 -70321499 -32056953 -9678653#1 -9678653#0 176154616#0 176154616#1 3998189#0 3998189#1 152633254 23370837#0 23370837#1 23370837#2 23370837#3 23370837#4 23370837#5 150771749#0 150771749#1 150771749#2 150771749#3 191261774#0 191261774#1 191261774#2 191261774#3 191261773#0 191261773#1 191261773#2 191261773#3 191261773#4 149920724#0 149920724#1 153760712#0 153760712#1 153760712#2 153760712#3 153760712#4 153760712#5 149920739#0 149920739#1 149920739#2 149920739#3 361387406#0 361387406#1 372067895 35109126#0 35109126#1 35109126#2 390291679 311105579#0 311105579#1 300706776#0 300706776#1 300706776#2 300706776#3 300706776#4 300706776#5 300706776#6 300706776#7 300706776#8 311105580 4237901#0 4237901#1 3091883#2 3091883#3 3091883#4 47413893#0 47413893#1 4540263#0 4540263#1 4540263#2 3999828#0 3999828#1 3999828#2 3999828#3 153260603#0 153260603#1 153260603#2 153260603#3 153260603#4 9651722#0 9651722#1 9651722#2 -124416957#2 -124416957#1 -124416957#0 4077031#0 4077031#1 4077031#2 4077031#3 4077031#4 4077031#5 4077031#6 4077031#7 4077031#8"/>
    </vehicle>
    <vehicle id="18" depart="18.00">
        <route edges="-8134184 -290533566#1 -1639864#3 -1639864#2 -1639864#1 -1639864#0 -1639705#3 -1639705#2 -1639705#1 -1639705#0 353055580 107035900 -107035900 -353055580 -107035898#1 -107035898#0 -237454219 -107032467 -107035886 -43945859 -107035897 -107035899#1 -107035899#0 -107035888#2 -107035888#1 -107035888#0 -107035894#3 -107035894#2 -107035894#1 -107035894#0 -9652512#1 -9652512#0 1639698#0 1639698#1 230826766#3 230826766#4 8121937 -205374511#11 -205374511#10 -205374511#9 -205374511#8 -205374511#7 -205374511#6 -205374511#5 -205374511#4 -205374511#3 -205374511#2 -205374511#1 -205374511#0 -9652509#4 -9652509#3 -9652509#2 -9652509#1 -9652509#0 8121938 3091883#0 3091883#1 3091883#2 150362638#0 150362638#1 -153260604#4 -153260604#3 -153260604#2 -153260604#1 -153260604#0 -149396565#11 -149396565#10 -149396565#9 -149396565#8 -149396565#7 -149396565#6 -149396565#5 -149396565#4 -149396565#3 -149396565#2 -149396565#1 -149396565#0 -358891948#1 -358891948#0 -149396562#1 -149396562#0 1639527#0 1639527#1 1639527#2 -153260602#1 -153260602#0 323532630 -300705354#3 -300705354#2 -300705354#1 -300705354#0 -326567312#1 -326567312#0 -326567311 -326567315#1 -326567315#0 -326567313 -323543222 -146362993 -323543224 -323543219 -323543218 -4008603 -167660563 -82114557#4 -82114557#3 16414042#0 16414042#1 16414042#2 16414043 -82114557#1 -82114557#0 -5041386#3 -5041386#2 5041392"/>
    </vehicle>
    <vehicle id="20" depart="20.00">
        <route edges="-4360454#2 -4360454#1 -4360454#0 -4360452#0 3999278 154260661 161487119 154260660#0 154260660#1 262289409 -262289408 -154260652 -94159652 94159650#4 94159650#0 94159650#1 -70330081 94159647#3 94159647#4 94159647#0 -177534110 -51549290 94159645#4 94159645#0 -3880048#7 -3880048#6 -3880048#5 -3880048#4 -3880048#3 -3880048#2 -3880048#1 -3880048#0 239265847 300713092 239265835 153817222#0 -153817222#0 4342666#0 4342666#1 4342666#2 4342667#3 4342667#4 4342667#5 4342667#6 4342667#7 4342667#0 178669148 -178669148"/>
    </vehicle>
    <vehicle id="21" depart="21.00">
        <route edges="8119879#3 -8119879#3 -8119879#2 -8119879#1 -8119879#0 -300705352 -24307854#3 -24307854#2 -24307854#1 -24307854#0 3088261#0 3088261#1 3088261#2 -300708553#8 300708553#8 -221359923 -300705341 -394853584#1 -394853584#0 -1639354#9 -1639354#8 -1639354#7 -1639354#6 -1639354#5 -1639354#4 -1639354#3 -1639354#2 -1639354#1 -1639354#0 -154186777#25 -154186777#24 -154186777#23 -154186777#22 -154186777#21 -154186777#20 -154186777#19 -154186777#18 -154186777#17 -154186777#16 -154186777#15 -154186777#14 -154186777#13 -154186777#12 -154186777#11 -154186777#10 -154186777#9 -154186777#8 -154186777#7 -154186777#6 -154186777#5 -154186777#4 -154186777#3 -154186777#2 -154186777#1 -154186777#0 1639364#0 1639364#1 1639364#2 1639364#3 1639364#4 1639364#5 1639364#6 1639364#7 1639364#8 1639364#9 1639364#10 1639364#11 1639364#12 1639364#13 1639364#14 1639364#15 1639364#16 -3091879#20 -3091879#19 -3091879#18 -3091879#17 -3091879#16 -3091879#15 -3091879#14 -3091879#13 -3091879#12 -3091879#11 -3091879#10 -3091879#9 -3091879#8 -3091879#7 -3091879#6 -3091879#5 -3091879#4 -3091879#3 -3091879#2 -3091879#1 -3091879#0 28937926#0 28937926#1 28937926#2 28937926#3 28937926#4 28937926#5 396036411 396036410#0 396036410#1 109816416#0 109816416#1 -80624595#1 -80624595#0 -198496045 4077022#0 4077022#1 4077022#2 4077022#3 4077022#4 4077022#5 4077022#6 4077022#7 4077022#8 227820008#0 227820008#1 156860061#0 156860061#1 -23221862#10 -23221862#9 -23221862#8 28553529#0"/>
    </vehicle>
    <vehicle id="22" depart="22.00">
        <route edges="-2854810 -157070598#1 -2854821#2 -2854821#1 -2854821#0 -96198552#3 -96198552#2 -96198552#1 -96198552#0 157070612 31738683 204258581#0 204258581#1 -2249751#1 -2249751#0 96940329 2249752#0 2249752#1 149367748 300713093 151225542#0 151225542#1 300713094 82111810#0 82111810#1 82111810#2 82111810#3 82111810#4 82111810#5 82111810#6 82111810#7 82111810#8 82111810#9 82111810#10 82111810#11 82111810#12 3084963#0 3084963#1 3084963#2 3084963#3 3084963#4 3084963#5 134196293#0 134196293#1 134196293#2 134196293#3 134196293#4 127678579#0 127678579#1 -4076769#1 -4076769#0 4076769#0"/>
    </vehicle>
    <vehicle id="23" depart="23.00">
        <route edges="28553602#2 -28553602#0 8148762#1 8148762#2 8148762#3 8430254 300703999#6 300703999#7 4549105#0 28838013#0 28838013#1 28838013#2 28838013#3 28838013#4 28838013#5 28838013#6 -220096958#0 -179639736#1 -179639736#0 179639735 220096959#1 220096960 46198772#6 46198772#7 46198772#8 46198772#9 46198772#0 4271522#0 4271522#1 4271522#2 132845591#0 132845591#1 132845591#2 238905087#0 238905087#1 153194972#0 153194972#1 153194972#2 153194972#3 153194972#4 153194972#5 2352513 280025125 280025126 177115163 92384975#0 92384975#1 92384973#0 92384973#1 156860059#0 156860059#1 -1639364#16 -1639364#15 -1639364#14 -1639364#13 -1639364#12 -1639364#11 -1639364#10 -1639364#9 -1639364#8 -1639364#7 -1639364#6 -1639364#5 -1639364#4 -1639364#3 -1639364#2 -1639364#1 -1639364#0 154186777#0 154186777#1 154186777#2 154186777#3 154186777#4 154186777#5 154186777#6 154186777#7 -148349923#16 -148349923#15 -148349923#14 -148349923#13 -148349923#12 -148349923#11 -148349923#10 -148349923#9 -148349923#8 -148349923#7 -148349923#6 -148349923#5 -148349923#4 -148349923#3 -148349923#2 -148349923#1 -148349923#0 148349920#1 148349920#2 4585152#0 4585152#1 148349925#0 148349925#1 148349925#2 148349926#0 148349926#1 148349926#2"/>
    </vehicle>
    <vehicle id="24" depart="24.00">