<?xml version="1.0" encoding="iso-8859-1"?>

<configuration xmlns:xsi="http://www.w3.org/2001/XMLSchema-instance" xsi:noNamespaceSchemaLocation="http://sumo.sf.net/xsd/sumoConfiguration.xsd">

    <input>
        <route-files value="routes_new.xml"/>
    </input>

    <routing>
    	<device.rerouting.probability value="1.0" />
    </routing>

</configuration>
