<?xml version="1.0" encoding="UTF-8"?>

<!-- generated on 03/15/18 17:19:09 by SUMO netconvert Version v0_32_0+0567-75b159a203
<configuration xmlns:xsi="http://www.w3.org/2001/XMLSchema-instance" xsi:noNamespaceSchemaLocation="http://sumo.dlr.de/xsd/netconvertConfiguration.xsd">

    <input>
        <osm-files value="small_manhattan.osm"/>
    </input>

    <output>
        <output-file value="small_manhattan.net.xml"/>
    </output>

    <projection>
        <proj.utm value="true"/>
    </projection>

</configuration>
-->

<net version="0.27" xmlns:xsi="http://www.w3.org/2001/XMLSchema-instance" xsi:noNamespaceSchemaLocation="http://sumo.dlr.de/xsd/net_file.xsd">

    <location netOffset="-584325.77,-4508126.03" convBoundary="0.00,0.00,5193.58,8199.33" origBoundary="-74.001559,40.719744,-73.939616,40.793354" projParameter="+proj=utm +zone=18 +ellps=WGS84 +datum=WGS84 +units=m +no_defs"/>

    <type id="highway.bridleway" priority="1" numLanes="1" speed="2.78" allow="pedestrian" oneway="1" width="2.00"/>
    <type id="highway.bus_guideway" priority="1" numLanes="1" speed="27.78" allow="bus" oneway="1"/>
    <type id="highway.cycleway" priority="1" numLanes="1" speed="8.33" allow="bicycle" oneway="0" width="1.00"/>
    <type id="highway.footway" priority="1" numLanes="1" speed="2.78" allow="pedestrian" oneway="1" width="2.00"/>
    <type id="highway.ford" priority="1" numLanes="1" speed="2.78" allow="army" oneway="0"/>
    <type id="highway.living_street" priority="3" numLanes="1" speed="2.78" disallow="tram rail_urban rail rail_electric ship" oneway="0"/>
    <type id="highway.motorway" priority="13" numLanes="2" speed="44.44" allow="private emergency authority army vip passenger hov taxi bus coach delivery truck trailer motorcycle evehicle custom1 custom2" oneway="1"/>
    <type id="highway.motorway_link" priority="12" numLanes="1" speed="22.22" allow="private emergency authority army vip passenger hov taxi bus coach delivery truck trailer motorcycle evehicle custom1 custom2" oneway="1"/>
    <type id="highway.path" priority="1" numLanes="1" speed="2.78" allow="bicycle pedestrian" oneway="1" width="2.00"/>
    <type id="highway.pedestrian" priority="1" numLanes="1" speed="2.78" allow="pedestrian" oneway="1" width="2.00"/>
    <type id="highway.primary" priority="9" numLanes="2" speed="27.78" disallow="tram rail_urban rail rail_electric ship" oneway="0"/>
    <type id="highway.primary_link" priority="8" numLanes="1" speed="22.22" disallow="tram rail_urban rail rail_electric ship" oneway="0"/>
    <type id="highway.raceway" priority="14" numLanes="2" speed="83.33" allow="vip" oneway="0"/>
    <type id="highway.residential" priority="4" numLanes="1" speed="13.89" disallow="tram rail_urban rail rail_electric ship" oneway="0"/>
    <type id="highway.secondary" priority="7" numLanes="2" speed="27.78" disallow="tram rail_urban rail rail_electric ship" oneway="0"/>
    <type id="highway.secondary_link" priority="6" numLanes="1" speed="22.22" disallow="tram rail_urban rail rail_electric ship" oneway="0"/>
    <type id="highway.service" priority="2" numLanes="1" speed="5.56" allow="delivery bicycle pedestrian" oneway="0"/>
    <type id="highway.services" priority="1" numLanes="1" speed="8.33" disallow="tram rail_urban rail rail_electric ship" oneway="0"/>
    <type id="highway.stairs" priority="1" numLanes="1" speed="1.39" allow="pedestrian" oneway="1" width="2.00"/>
    <type id="highway.step" priority="1" numLanes="1" speed="1.39" allow="pedestrian" oneway="1" width="2.00"/>
    <type id="highway.steps" priority="1" numLanes="1" speed="1.39" allow="pedestrian" oneway="1" width="2.00"/>
    <type id="highway.tertiary" priority="6" numLanes="1" speed="22.22" disallow="tram rail_urban rail rail_electric ship" oneway="0"/>
    <type id="highway.tertiary_link" priority="5" numLanes="1" speed="22.22" disallow="tram rail_urban rail rail_electric ship" oneway="0"/>
    <type id="highway.track" priority="1" numLanes="1" speed="5.56" disallow="tram rail_urban rail rail_electric ship" oneway="0"/>
    <type id="highway.trunk" priority="11" numLanes="2" speed="27.78" disallow="tram rail_urban rail rail_electric bicycle pedestrian ship" oneway="0"/>
    <type id="highway.trunk_link" priority="10" numLanes="1" speed="22.22" disallow="tram rail_urban rail rail_electric bicycle pedestrian ship" oneway="0"/>
    <type id="highway.unclassified" priority="5" numLanes="1" speed="13.89" disallow="tram rail_urban rail rail_electric ship" oneway="0"/>
    <type id="highway.unsurfaced" priority="1" numLanes="1" speed="8.33" disallow="tram rail_urban rail rail_electric ship" oneway="0"/>
    <type id="railway.light_rail" priority="15" numLanes="1" speed="27.78" allow="rail_urban" oneway="1"/>
    <type id="railway.preserved" priority="15" numLanes="1" speed="27.78" allow="rail" oneway="1"/>
    <type id="railway.rail" priority="15" numLanes="1" speed="83.33" allow="rail rail_electric" oneway="1"/>
    <type id="railway.subway" priority="15" numLanes="1" speed="27.78" allow="rail_urban" oneway="1"/>
    <type id="railway.tram" priority="15" numLanes="1" speed="13.89" allow="tram" oneway="1"/>

    <edge id=":100522728_0" function="internal">
        <lane id=":100522728_0_0" index="0" disallow="tram rail_urban rail rail_electric ship" speed="20.84" length="5.02" shape="2182.38,3965.55 2181.28,3966.39 2180.70,3967.37 2180.65,3968.50 2181.12,3969.79"/>
    </edge>
    <edge id=":100522728_1" function="internal">
        <lane id=":100522728_1_0" index="0" disallow="tram rail_urban rail rail_electric ship" speed="13.89" length="12.84" shape="2182.38,3965.55 2171.08,3971.64"/>
    </edge>
    <edge id=":100522728_2" function="internal">
        <lane id=":100522728_2_0" index="0" disallow="tram rail_urban rail rail_electric ship" speed="27.78" length="6.21" shape="2178.18,3964.32 2181.12,3969.79"/>
        <lane id=":100522728_2_1" index="1" disallow="tram rail_urban rail rail_electric ship" speed="27.78" length="6.21" shape="2175.27,3965.88 2178.21,3971.35"/>
        <lane id=":100522728_2_2" index="2" disallow="tram rail_urban rail rail_electric ship" speed="27.78" length="6.21" shape="2172.36,3967.44 2175.30,3972.91"/>
    </edge>
    <edge id=":100522728_5" function="internal">
        <lane id=":100522728_5_0" index="0" disallow="tram rail_urban rail rail_electric ship" speed="20.84" length="5.02" shape="2172.36,3967.44 2172.84,3968.74 2172.78,3969.87 2172.20,3970.84 2171.08,3971.64"/>
    </edge>
    <edge id=":1745856010_0" function="internal">
        <lane id=":1745856010_0_0" index="0" disallow="tram rail_urban rail rail_electric ship" speed="11.18" length="5.00" shape="1876.49,4580.25 1880.89,4577.88"/>
    </edge>
    <edge id=":1745856081_0" function="internal">
        <lane id=":1745856081_0_0" index="0" disallow="tram rail_urban rail rail_electric ship" speed="27.78" length="4.95" shape="1919.61,4649.68 1915.30,4652.05"/>
        <lane id=":1745856081_0_1" index="1" disallow="tram rail_urban rail rail_electric ship" speed="27.78" length="4.95" shape="1918.05,4646.78 1913.69,4649.16"/>
    </edge>
    <edge id=":1745991210_0" function="internal">
        <lane id=":1745991210_0_0" index="0" disallow="tram rail_urban rail rail_electric ship" speed="13.89" length="5.01" shape="1500.65,4422.22 1505.06,4419.83"/>
    </edge>
    <edge id=":1745991212_0" function="internal">
        <lane id=":1745991212_0_0" index="0" disallow="tram rail_urban rail rail_electric ship" speed="27.78" length="5.04" shape="1543.55,4491.90 1539.11,4494.29"/>
        <lane id=":1745991212_0_1" index="1" disallow="tram rail_urban rail rail_electric ship" speed="27.78" length="5.04" shape="1541.98,4488.99 1537.55,4491.39"/>
    </edge>
    <edge id=":1745991214_0" function="internal">
        <lane id=":1745991214_0_0" index="0" disallow="tram rail_urban rail rail_electric ship" speed="27.78" length="5.00" shape="1574.37,4560.88 1578.78,4558.52"/>
        <lane id=":1745991214_0_1" index="1" disallow="tram rail_urban rail rail_electric ship" speed="27.78" length="5.00" shape="1575.93,4563.79 1580.34,4561.43"/>
        <lane id=":1745991214_0_2" index="2" disallow="tram rail_urban rail rail_electric ship" speed="27.78" length="5.00" shape="1577.49,4566.70 1581.90,4564.34"/>
    </edge>
    <edge id=":1758380528_0" function="internal">
        <lane id=":1758380528_0_0" index="0" disallow="tram rail_urban rail rail_electric ship" speed="27.78" length="9.50" shape="1354.38,4593.82 1346.02,4598.32"/>
        <lane id=":1758380528_0_1" index="1" disallow="tram rail_urban rail rail_electric ship" speed="27.78" length="9.50" shape="1352.82,4590.91 1344.45,4595.42"/>
    </edge>
    <edge id=":1758380528_2" function="internal">
        <lane id=":1758380528_2_0" index="0" allow="delivery bicycle pedestrian" speed="15.01" length="7.85" shape="1352.82,4590.91 1350.26,4592.07 1348.22,4592.50 1346.70,4592.22 1345.71,4591.21"/>
    </edge>
    <edge id=":1758380528_3" function="internal">
        <lane id=":1758380528_3_0" index="0" disallow="tram rail_urban rail rail_electric ship" speed="15.01" length="7.85" shape="1348.62,4589.65 1348.91,4591.03 1348.31,4592.46 1346.82,4593.92 1344.45,4595.42"/>
    </edge>
    <edge id=":1758380528_4" function="internal">
        <lane id=":1758380528_4_0" index="0" allow="delivery bicycle pedestrian" speed="2.24" length="4.82" shape="1348.62,4589.65 1348.47,4591.13 1347.94,4591.88 1347.02,4591.91 1345.71,4591.21"/>
    </edge>
    <edge id=":1762438249_0" function="internal">
        <lane id=":1762438249_0_0" index="0" disallow="tram rail_urban rail rail_electric ship" speed="11.18" length="5.00" shape="1561.99,4298.92 1557.59,4301.29"/>
    </edge>
    <edge id=":1762438252_0" function="internal">
        <lane id=":1762438252_0_0" index="0" disallow="tram rail_urban rail rail_electric ship" speed="27.78" length="5.01" shape="1518.64,4230.04 1523.04,4227.66"/>
        <lane id=":1762438252_0_1" index="1" disallow="tram rail_urban rail rail_electric ship" speed="27.78" length="5.01" shape="1520.21,4232.94 1524.61,4230.56"/>
    </edge>
    <edge id=":1762449346_0" function="internal">
        <lane id=":1762449346_0_0" index="0" allow="delivery bicycle pedestrian" speed="2.24" length="0.30" shape="1343.37,4586.85 1343.23,4586.59"/>
    </edge>
    <edge id=":1762449346_1" function="internal">
        <lane id=":1762449346_1_0" index="0" allow="delivery bicycle pedestrian" speed="2.24" length="2.41" shape="1343.37,4586.85 1343.52,4585.37 1344.05,4584.62"/>
    </edge>
    <edge id=":1762449346_4" function="internal">
        <lane id=":1762449346_4_0" index="0" speed="2.24" length="2.41" shape="1344.05,4584.62 1344.97,4584.59 1346.28,4585.29"/>
    </edge>
    <edge id=":1762449346_2" function="internal">
        <lane id=":1762449346_2_0" index="0" allow="delivery bicycle pedestrian" speed="2.24" length="0.30" shape="1346.14,4585.02 1346.28,4585.29"/>
    </edge>
    <edge id=":1762449346_3" function="internal">
        <lane id=":1762449346_3_0" index="0" allow="delivery bicycle pedestrian" speed="2.24" length="2.41" shape="1346.14,4585.02 1346.00,4586.51 1345.47,4587.26"/>
    </edge>
    <edge id=":1762449346_5" function="internal">
        <lane id=":1762449346_5_0" index="0" speed="2.24" length="2.41" shape="1345.47,4587.26 1344.55,4587.29 1343.23,4586.59"/>
    </edge>
    <edge id=":1762449347_0" function="internal">
        <lane id=":1762449347_0_0" index="0" allow="delivery bicycle pedestrian" speed="2.24" length="4.82" shape="1314.38,4532.98 1314.52,4531.50 1315.05,4530.75 1315.97,4530.72 1317.29,4531.42"/>
    </edge>
    <edge id=":1828749428_0" function="internal">
        <lane id=":1828749428_0_0" index="0" disallow="tram rail_urban rail rail_electric ship" speed="13.89" length="7.09" shape="1630.58,4624.59 1624.32,4627.92"/>
    </edge>
    <edge id=":2176936521_0" function="internal">
        <lane id=":2176936521_0_0" index="0" disallow="tram rail_urban rail rail_electric ship" speed="27.78" length="5.00" shape="1631.62,4083.19 1627.23,4085.57"/>
        <lane id=":2176936521_0_1" index="1" disallow="tram rail_urban rail rail_electric ship" speed="27.78" length="5.00" shape="1630.05,4080.29 1625.66,4082.67"/>
    </edge>
    <edge id=":2176936535_0" function="internal">
        <lane id=":2176936535_0_0" index="0" disallow="tram rail_urban rail rail_electric ship" speed="27.78" length="4.99" shape="1662.00,4152.55 1666.39,4150.18"/>
        <lane id=":2176936535_0_1" index="1" disallow="tram rail_urban rail rail_electric ship" speed="27.78" length="4.99" shape="1663.57,4155.45 1667.96,4153.09"/>
    </edge>
    <edge id=":2351532369_0" function="internal">
        <lane id=":2351532369_0_0" index="0" disallow="tram rail_urban rail rail_electric ship" speed="27.78" length="0.30" shape="1014.78,4861.81 1015.05,4861.67"/>
        <lane id=":2351532369_0_1" index="1" disallow="tram rail_urban rail rail_electric ship" speed="27.78" length="0.30" shape="1016.35,4864.72 1016.61,4864.57"/>
        <lane id=":2351532369_0_2" index="2" disallow="tram rail_urban rail rail_electric ship" speed="27.78" length="0.30" shape="1017.91,4867.62 1018.17,4867.48"/>
    </edge>
    <edge id=":2435108438_0" function="internal">
        <lane id=":2435108438_0_0" index="0" disallow="tram rail_urban rail rail_electric ship" speed="27.78" length="0.29" shape="1455.74,4548.32 1455.63,4548.11"/>
        <lane id=":2435108438_0_1" index="1" disallow="tram rail_urban rail rail_electric ship" speed="27.78" length="0.29" shape="1458.65,4546.77 1458.52,4546.53"/>
        <lane id=":2435108438_0_2" index="2" disallow="tram rail_urban rail rail_electric ship" speed="27.78" length="0.29" shape="1461.56,4545.22 1461.42,4544.94"/>
        <lane id=":2435108438_0_3" index="3" disallow="tram rail_urban rail rail_electric ship" speed="27.78" length="0.29" shape="1464.48,4543.67 1464.31,4543.36"/>
    </edge>
    <edge id=":2435108453_0" function="internal">
        <lane id=":2435108453_0_0" index="0" disallow="tram rail_urban rail rail_electric ship" speed="13.89" length="0.32" shape="1427.36,4651.95 1427.22,4651.66"/>
    </edge>
    <edge id=":2435108458_0" function="internal">
        <lane id=":2435108458_0_0" index="0" disallow="tram rail_urban rail rail_electric ship" speed="27.78" length="0.30" shape="1446.89,4532.19 1446.76,4531.95"/>
        <lane id=":2435108458_0_1" index="1" disallow="tram rail_urban rail rail_electric ship" speed="27.78" length="0.30" shape="1449.79,4530.60 1449.65,4530.34"/>
        <lane id=":2435108458_0_2" index="2" disallow="tram rail_urban rail rail_electric ship" speed="27.78" length="0.30" shape="1452.68,4529.01 1452.53,4528.74"/>
        <lane id=":2435108458_0_3" index="3" disallow="tram rail_urban rail rail_electric ship" speed="27.78" length="0.30" shape="1455.57,4527.42 1455.41,4527.13"/>
    </edge>
    <edge id=":2435108462_0" function="internal">
        <lane id=":2435108462_0_0" index="0" disallow="tram rail_urban rail rail_electric ship" speed="27.78" length="3.00" shape="1411.29,4648.29 1413.94,4646.86"/>
        <lane id=":2435108462_0_1" index="1" disallow="tram rail_urban rail rail_electric ship" speed="27.78" length="3.00" shape="1412.86,4651.19 1415.50,4649.77"/>
        <lane id=":2435108462_0_2" index="2" disallow="tram rail_urban rail rail_electric ship" speed="27.78" length="3.00" shape="1414.42,4654.10 1417.06,4652.68"/>
    </edge>
    <edge id=":247123611_0" function="internal">
        <lane id=":247123611_0_0" index="0" disallow="tram rail_urban rail rail_electric ship" speed="13.89" length="0.20" shape="544.52,5570.80 544.34,5570.89"/>
    </edge>
    <edge id=":2782279859_0" function="internal">
        <lane id=":2782279859_0_0" index="0" disallow="tram rail_urban rail rail_electric ship" speed="27.78" length="0.30" shape="1500.50,4600.40 1500.75,4600.27"/>
        <lane id=":2782279859_0_1" index="1" disallow="tram rail_urban rail rail_electric ship" speed="27.78" length="0.30" shape="1502.04,4603.32 1502.31,4603.18"/>
        <lane id=":2782279859_0_2" index="2" disallow="tram rail_urban rail rail_electric ship" speed="27.78" length="0.30" shape="1503.58,4606.24 1503.86,4606.09"/>
    </edge>
    <edge id=":2782279879_0" function="internal">
        <lane id=":2782279879_0_0" index="0" disallow="tram rail_urban rail rail_electric ship" speed="27.78" length="0.30" shape="1479.03,4611.90 1479.28,4611.76"/>
        <lane id=":2782279879_0_1" index="1" disallow="tram rail_urban rail rail_electric ship" speed="27.78" length="0.30" shape="1480.59,4614.81 1480.85,4614.66"/>
        <lane id=":2782279879_0_2" index="2" disallow="tram rail_urban rail rail_electric ship" speed="27.78" length="0.30" shape="1482.14,4617.72 1482.42,4617.57"/>
    </edge>
    <edge id=":2947354183_0" function="internal">
        <lane id=":2947354183_0_0" index="0" disallow="tram rail_urban rail rail_electric ship" speed="13.89" length="5.33" shape="2266.31,4280.66 2265.10,4281.61 2264.51,4282.57 2263.92,4283.53 2262.71,4284.48"/>
    </edge>
    <edge id=":2947354184_0" function="internal">
        <lane id=":2947354184_0_0" index="0" disallow="tram rail_urban rail rail_electric ship" speed="13.89" length="5.34" shape="2244.15,4294.49 2242.69,4294.98 2241.56,4294.95 2240.43,4294.91 2238.97,4295.41"/>
    </edge>
    <edge id=":3463813447_0" function="internal">
        <lane id=":3463813447_0_0" index="0" disallow="tram rail_urban rail rail_electric ship" speed="27.78" length="0.30" shape="993.15,4873.47 993.41,4873.33"/>
        <lane id=":3463813447_0_1" index="1" disallow="tram rail_urban rail rail_electric ship" speed="27.78" length="0.30" shape="994.71,4876.38 994.98,4876.24"/>
        <lane id=":3463813447_0_2" index="2" disallow="tram rail_urban rail rail_electric ship" speed="27.78" length="0.30" shape="996.27,4879.29 996.54,4879.14"/>
    </edge>
    <edge id=":3463815151_0" function="internal">
        <lane id=":3463815151_0_0" index="0" disallow="tram rail_urban rail rail_electric ship" speed="11.18" length="0.24" shape="1072.23,5015.15 1072.45,5015.04"/>
    </edge>
    <edge id=":3463816116_0" function="internal">
        <lane id=":3463816116_0_0" index="0" disallow="tram rail_urban rail rail_electric ship" speed="13.89" length="0.10" shape="1573.95,5006.38 1573.95,5006.38"/>
    </edge>
    <edge id=":3463816117_0" function="internal">
        <lane id=":3463816117_0_0" index="0" disallow="tram rail_urban rail rail_electric ship" speed="13.89" length="0.30" shape="1586.15,5007.76 1585.89,5007.90"/>
    </edge>
    <edge id=":3463816118_0" function="internal">
        <lane id=":3463816118_0_0" index="0" disallow="tram rail_urban rail rail_electric ship" speed="13.89" length="0.10" shape="1564.57,5019.37 1564.57,5019.37"/>
    </edge>
    <edge id=":3463816119_0" function="internal">
        <lane id=":3463816119_0_0" index="0" disallow="tram rail_urban rail rail_electric ship" speed="13.89" length="0.10" shape="1577.75,5021.91 1577.75,5021.91"/>
    </edge>
    <edge id=":3463817011_0" function="internal">
        <lane id=":3463817011_0_0" index="0" disallow="tram rail_urban rail rail_electric ship" speed="13.89" length="0.28" shape="1690.75,4951.26 1690.51,4951.39"/>
    </edge>
    <edge id=":3463817013_0" function="internal">
        <lane id=":3463817013_0_0" index="0" disallow="tram rail_urban rail rail_electric ship" speed="13.89" length="0.10" shape="1668.56,4963.43 1668.56,4963.43"/>
    </edge>
    <edge id=":3790180111_0" function="internal">
        <lane id=":3790180111_0_0" index="0" disallow="tram rail_urban rail rail_electric ship" speed="13.89" length="5.35" shape="2380.38,4307.08 2381.84,4306.58 2382.97,4306.62 2384.10,4306.65 2385.56,4306.16"/>
    </edge>
    <edge id=":3827599085_0" function="internal">
        <lane id=":3827599085_0_0" index="0" disallow="tram rail_urban rail rail_electric ship" speed="13.89" length="0.74" shape="2813.93,3622.54 2813.80,3622.72 2813.70,3622.83 2813.57,3622.91 2813.38,3623.02"/>
    </edge>
    <edge id=":3859590413_0" function="internal">
        <lane id=":3859590413_0_0" index="0" allow="rail_urban" speed="27.78" length="3.59" shape="1920.32,4649.91 1919.36,4650.31 1918.64,4650.42 1917.89,4650.43 1916.82,4650.53"/>
    </edge>
    <edge id=":3859590413_1" function="internal">
        <lane id=":3859590413_1_0" index="0" allow="rail_urban" speed="27.78" length="3.71" shape="1916.90,4651.76 1918.10,4651.03 1918.49,4650.58 1918.07,4650.41 1916.82,4650.53"/>
    </edge>
    <edge id=":3971196607_0" function="internal">
        <lane id=":3971196607_0_0" index="0" disallow="tram rail_urban rail rail_electric ship" speed="27.78" length="5.06" shape="1632.02,4287.14 1634.41,4291.59"/>
        <lane id=":3971196607_0_1" index="1" disallow="tram rail_urban rail rail_electric ship" speed="27.78" length="5.06" shape="1629.11,4288.70 1631.50,4293.15"/>
    </edge>
    <edge id=":3971196618_0" function="internal">
        <lane id=":3971196618_0_0" index="0" disallow="tram rail_urban rail rail_electric ship" speed="27.78" length="3.00" shape="1654.58,4329.15 1656.00,4331.79"/>
        <lane id=":3971196618_0_1" index="1" disallow="tram rail_urban rail rail_electric ship" speed="27.78" length="3.00" shape="1651.68,4330.71 1653.09,4333.35"/>
    </edge>
    <edge id=":3971196619_0" function="internal">
        <lane id=":3971196619_0_0" index="0" disallow="tram rail_urban rail rail_electric ship" speed="13.89" length="3.00" shape="1643.80,4343.43 1646.45,4342.00"/>
    </edge>
    <edge id=":3971196620_0" function="internal">
        <lane id=":3971196620_0_0" index="0" disallow="tram rail_urban rail rail_electric ship" speed="13.89" length="5.56" shape="1587.68,4375.58 1588.95,4374.60 1589.59,4373.62 1590.23,4372.63 1591.50,4371.65"/>
    </edge>
    <edge id=":3971196622_0" function="internal">
        <lane id=":3971196622_0_0" index="0" disallow="tram rail_urban rail rail_electric ship" speed="27.78" length="3.00" shape="1692.92,4400.32 1694.34,4402.97"/>
        <lane id=":3971196622_0_1" index="1" disallow="tram rail_urban rail rail_electric ship" speed="27.78" length="3.00" shape="1690.01,4401.89 1691.43,4404.53"/>
    </edge>
    <edge id=":3971196623_0" function="internal">
        <lane id=":3971196623_0_0" index="0" disallow="tram rail_urban rail rail_electric ship" speed="27.78" length="3.00" shape="1684.57,4415.92 1681.93,4417.35"/>
        <lane id=":3971196623_0_1" index="1" disallow="tram rail_urban rail rail_electric ship" speed="27.78" length="3.00" shape="1683.01,4413.02 1680.37,4414.44"/>
    </edge>
    <edge id=":3971196624_0" function="internal">
        <lane id=":3971196624_0_0" index="0" disallow="tram rail_urban rail rail_electric ship" speed="27.78" length="4.95" shape="1590.23,4466.75 1585.87,4469.10"/>
        <lane id=":3971196624_0_1" index="1" disallow="tram rail_urban rail rail_electric ship" speed="27.78" length="4.95" shape="1588.67,4463.84 1584.31,4466.19"/>
    </edge>
    <edge id=":3971196627_0" function="internal">
        <lane id=":3971196627_0_0" index="0" disallow="tram rail_urban rail rail_electric ship" speed="27.78" length="0.47" shape="1718.67,4478.06 1719.16,4477.81"/>
        <lane id=":3971196627_0_1" index="1" disallow="tram rail_urban rail rail_electric ship" speed="27.78" length="0.47" shape="1720.23,4480.97 1720.65,4480.75"/>
        <lane id=":3971196627_0_2" index="2" disallow="tram rail_urban rail rail_electric ship" speed="27.78" length="0.47" shape="1721.79,4483.88 1722.13,4483.70"/>
    </edge>
    <edge id=":3971196628_0" function="internal">
        <lane id=":3971196628_0_0" index="0" disallow="tram rail_urban rail rail_electric ship" speed="27.78" length="0.30" shape="1749.35,4498.14 1749.49,4498.40"/>
        <lane id=":3971196628_0_1" index="1" disallow="tram rail_urban rail rail_electric ship" speed="27.78" length="0.30" shape="1746.44,4499.69 1746.58,4499.96"/>
    </edge>
    <edge id=":3971196629_0" function="internal">
        <lane id=":3971196629_0_0" index="0" disallow="tram rail_urban rail rail_electric ship" speed="27.78" length="7.00" shape="1612.04,4540.73 1614.07,4534.03"/>
        <lane id=":3971196629_0_1" index="1" disallow="tram rail_urban rail rail_electric ship" speed="27.78" length="7.00" shape="1613.60,4543.63 1615.63,4536.94"/>
        <lane id=":3971196629_0_2" index="2" disallow="tram rail_urban rail rail_electric ship" speed="27.78" length="7.00" shape="1615.15,4546.54 1617.19,4539.85"/>
    </edge>
    <edge id=":3971196631_0" function="internal">
        <lane id=":3971196631_0_0" index="0" disallow="tram rail_urban rail rail_electric ship" speed="13.89" length="5.03" shape="1705.47,4583.47 1701.06,4585.88"/>
    </edge>
    <edge id=":3971196633_0" function="internal">
        <lane id=":3971196633_0_0" index="0" disallow="tram rail_urban rail rail_electric ship" speed="11.18" length="5.01" shape="1718.89,4665.42 1723.29,4663.04"/>
    </edge>
    <edge id=":3974095831_0" function="internal">
        <lane id=":3974095831_0_0" index="0" disallow="tram rail_urban rail rail_electric ship" speed="27.78" length="7.18" shape="1319.35,4252.00 1313.03,4255.41"/>
        <lane id=":3974095831_0_1" index="1" disallow="tram rail_urban rail rail_electric ship" speed="27.78" length="7.18" shape="1317.78,4249.10 1311.46,4252.51"/>
    </edge>
    <edge id=":3974095843_0" function="internal">
        <lane id=":3974095843_0_0" index="0" disallow="tram rail_urban rail rail_electric ship" speed="27.78" length="0.54" shape="1809.24,4608.60 1809.51,4609.14"/>
        <lane id=":3974095843_0_1" index="1" disallow="tram rail_urban rail rail_electric ship" speed="27.78" length="0.54" shape="1806.34,4610.18 1806.55,4610.60"/>
    </edge>
    <edge id=":3974095846_0" function="internal">
        <lane id=":3974095846_0_0" index="0" disallow="tram rail_urban rail rail_electric ship" speed="27.78" length="5.00" shape="1317.00,4699.07 1321.40,4696.70"/>
        <lane id=":3974095846_0_1" index="1" disallow="tram rail_urban rail rail_electric ship" speed="27.78" length="5.00" shape="1318.56,4701.97 1322.96,4699.60"/>
        <lane id=":3974095846_0_2" index="2" disallow="tram rail_urban rail rail_electric ship" speed="27.78" length="5.00" shape="1320.13,4704.88 1324.53,4702.51"/>
    </edge>
    <edge id=":3977886256_0" function="internal">
        <lane id=":3977886256_0_0" index="0" disallow="tram rail_urban rail rail_electric ship" speed="27.78" length="0.30" shape="1485.19,4603.67 1485.04,4603.41"/>
        <lane id=":3977886256_0_1" index="1" disallow="tram rail_urban rail rail_electric ship" speed="27.78" length="0.30" shape="1488.10,4602.12 1487.96,4601.86"/>
        <lane id=":3977886256_0_2" index="2" disallow="tram rail_urban rail rail_electric ship" speed="27.78" length="0.30" shape="1491.01,4600.57 1490.87,4600.31"/>
        <lane id=":3977886256_0_3" index="3" disallow="tram rail_urban rail rail_electric ship" speed="27.78" length="0.30" shape="1493.92,4599.02 1493.78,4598.76"/>
    </edge>
    <edge id=":3977886860_0" function="internal">
        <lane id=":3977886860_0_0" index="0" disallow="tram rail_urban rail rail_electric ship" speed="27.78" length="0.10" shape="1492.09,4616.73 1492.09,4616.73"/>
        <lane id=":3977886860_0_1" index="1" disallow="tram rail_urban rail rail_electric ship" speed="27.78" length="0.10" shape="1495.01,4615.20 1495.01,4615.20"/>
        <lane id=":3977886860_0_2" index="2" disallow="tram rail_urban rail rail_electric ship" speed="27.78" length="0.10" shape="1497.93,4613.66 1497.93,4613.66"/>
        <lane id=":3977886860_0_3" index="3" disallow="tram rail_urban rail rail_electric ship" speed="27.78" length="0.10" shape="1500.86,4612.13 1500.86,4612.13"/>
    </edge>
    <edge id=":3977886863_0" function="internal">
        <lane id=":3977886863_0_0" index="0" disallow="tram rail_urban rail rail_electric ship" speed="13.89" length="0.32" shape="1455.42,4709.73 1455.28,4709.44"/>
    </edge>
    <edge id=":3977886869_0" function="internal">
        <lane id=":3977886869_0_0" index="0" disallow="tram rail_urban rail rail_electric ship" speed="11.18" length="0.10" shape="1555.90,4752.40 1555.90,4752.40"/>
    </edge>
    <edge id=":4016646232_0" function="internal">
        <lane id=":4016646232_0_0" index="0" disallow="tram rail_urban rail rail_electric ship" speed="27.78" length="0.10" shape="1827.25,4648.76 1827.25,4648.76"/>
        <lane id=":4016646232_0_1" index="1" disallow="tram rail_urban rail rail_electric ship" speed="27.78" length="0.10" shape="1824.35,4650.34 1824.35,4650.34"/>
    </edge>
    <edge id=":4207938835_0" function="internal">
        <lane id=":4207938835_0_0" index="0" disallow="tram rail_urban rail rail_electric ship" speed="27.78" length="0.26" shape="1879.95,4671.79 1879.65,4671.94"/>
        <lane id=":4207938835_0_1" index="1" disallow="tram rail_urban rail rail_electric ship" speed="27.78" length="0.26" shape="1878.34,4668.90 1878.17,4668.99"/>
    </edge>
    <edge id=":4207952791_0" function="internal">
        <lane id=":4207952791_0_0" index="0" disallow="tram rail_urban rail rail_electric ship" speed="27.78" length="0.10" shape="2169.81,4301.22 2169.81,4301.22"/>
        <lane id=":4207952791_0_1" index="1" disallow="tram rail_urban rail rail_electric ship" speed="27.78" length="0.10" shape="2166.90,4302.78 2166.90,4302.78"/>
    </edge>
    <edge id=":4207952792_0" function="internal">
        <lane id=":4207952792_0_0" index="0" disallow="tram rail_urban rail rail_electric ship" speed="27.78" length="0.10" shape="2242.09,4435.71 2242.09,4435.71"/>
        <lane id=":4207952792_0_1" index="1" disallow="tram rail_urban rail rail_electric ship" speed="27.78" length="0.10" shape="2239.18,4437.28 2239.18,4437.28"/>
    </edge>
    <edge id=":4207952793_0" function="internal">