<?xml version="1.0" encoding="UTF-8"?>
<!-- generated on 2018-04-03 02:32:16.511883 by $Id$
  options: -n newark.net.xml -e 250 <doubleminus>fringe-factor 10e+100 <doubleminus>period 0.1 <doubleminus>binomial 30 <doubleminus>seed 1 <doubleminus>route-file routes_newark.xml
-->
<routes xmlns:xsi="http://www.w3.org/2001/XMLSchema-instance" xsi:noNamespaceSchemaLocation="http://sumo.dlr.de/xsd/routes_file.xsd">
    <trip id="0" depart="0.00" from="268206218" to="11623500#1"/>
    <trip id="1" depart="0.00" from="-224940686" to="11618175#7"/>
    <trip id="2" depart="0.00" from="-11616476#3" to="11780942#3"/>
    <trip id="3" depart="0.00" from="-11624582" to="11622732"/>
    <trip id="4" depart="0.00" from="49200100#0" to="303379084"/>
    <trip id="5" depart="0.00" from="-11616476#3" to="11619717"/>
    <trip id="6" depart="0.00" from="-11623729#1" to="-11618330#0"/>
    <trip id="7" depart="0.00" from="-11624234#1" to="11618827#1"/>
    <trip id="8" depart="0.00" from="-11620217#1" to="-261719101"/>
    <trip id="9" depart="0.00" from="-11615720" to="122603819"/>
    <trip id="10" depart="0.00" from="75309583" to="224940668#1"/>
    <trip id="11" depart="0.00" from="-11622114#6" to="11622732"/>
    <trip id="12" depart="0.00" from="-475835714#1" to="261719105"/>
    <trip id="13" depart="1.00" from="-11620417" to="11624234#1"/>
    <trip id="14" depart="1.00" from="-358952990" to="11622544"/>
    <trip id="15" depart="1.00" from="-11616750#1" to="11622544"/>
    <trip id="16" depart="1.00" from="-237462020" to="54672534"/>
    <trip id="17" depart="1.00" from="-261719096" to="425408799"/>
    <trip id="18" depart="1.00" from="-358952990" to="425431904"/>
    <trip id="19" depart="1.00" from="11776550" to="11624750#7"/>
    <trip id="20" depart="2.00" from="27827483#0" to="11620305"/>
    <trip id="21" depart="2.00" from="-237462020" to="11618715"/>
    <trip id="22" depart="2.00" from="-11620160" to="-11780700"/>
    <trip id="23" depart="2.00" from="261719101" to="11622114#6"/>
    <trip id="24" depart="2.00" from="-11615529" to="-11617514"/>
    <trip id="25" depart="2.00" from="-11617937" to="11621372"/>
    <trip id="26" depart="2.00" from="-11618779#2" to="11619498#1"/>
    <trip id="27" depart="2.00" from="-11621041#7" to="11622618"/>
    <trip id="28" depart="2.00" from="-11780942#3" to="-11617851"/>
    <trip id="29" depart="2.00" from="-11617937" to="296353413#1"/>
    <trip id="30" depart="2.00" from="11614997#0" to="11624669"/>
    <trip id="31" depart="2.00" from="-11615529" to="-11624119"/>
    <trip id="32" depart="3.00" from="11621128#0" to="11622249#2"/>
    <trip id="33" depart="3.00" from="61671719" to="11624234#1"/>
    <trip id="34" depart="3.00" from="11618499#0" to="11617336"/>
    <trip id="35" depart="3.00" from="11617959" to="-11619397"/>
    <trip id="36" depart="3.00" from="60787965#0" to="261713324"/>
    <trip id="37" depart="3.00" from="274869350" to="-74762843"/>
    <trip id="38" depart="3.00" from="-11613763" to="261719096"/>
    <trip id="39" depart="3.00" from="171927284" to="426926196#6"/>
    <trip id="40" depart="3.00" from="27827483#0" to="475835715#1"/>
    <trip id="41" depart="3.00" from="11619397" to="11617759#1"/>
    <trip id="42" depart="3.00" from="-11617799#4" to="11622017"/>
    <trip id="43" depart="3.00" from="-224940724#26" to="-75309595"/>
    <trip id="44" depart="3.00" from="-11619573" to="-75309599"/>
    <trip id="45" depart="3.00" from="11619397" to="122603819"/>
    <trip id="46" depart="4.00" from="11622453#0" to="-11620837"/>
    <trip id="47" depart="4.00" from="422709488" to="-256664450"/>
    <trip id="48" depart="4.00" from="27827481#0" to="11620940"/>
    <trip id="49" depart="4.00" from="-421119150#2" to="-11622060#0"/>
    <trip id="50" depart="4.00" from="-11617404" to="224940724#26"/>
    <trip id="51" depart="4.00" from="-11617566#1" to="-423497698"/>
    <trip id="52" depart="5.00" from="11777600" to="11625072#1"/>
    <trip id="53" depart="5.00" from="11619196#0" to="-11621128#0"/>
    <trip id="54" depart="5.00" from="338794355#0" to="-11618520#0"/>
    <trip id="55" depart="5.00" from="75309582" to="11617597#1"/>
    <trip id="56" depart="5.00" from="-11618843#5" to="-27827487#0"/>
    <trip id="57" depart="5.00" from="422709488" to="11617175#8"/>
    <trip id="58" depart="5.00" from="-11620527" to="11618508#2"/>
    <trip id="59" depart="5.00" from="11618520#0" to="-11618520#0"/>
    <trip id="60" depart="5.00" from="74762843" to="-60787965#0"/>
    <trip id="61" depart="5.00" from="-11617329#1" to="352856901"/>
    <trip id="62" depart="5.00" from="-11619790#1" to="11621096"/>
    <trip id="63" depart="5.00" from="-353307428" to="-74760053"/>
    <trip id="64" depart="5.00" from="-11617566#1" to="-46965485"/>
    <trip id="65" depart="6.00" from="-11622017" to="-75309582"/>
    <trip id="66" depart="6.00" from="-11622114#6" to="11619751"/>
    <trip id="67" depart="6.00" from="-11615720" to="-338794354#0"/>
    <trip id="68" depart="6.00" from="-421119150#2" to="-11620050#0"/>
    <trip id="69" depart="6.00" from="11618099" to="-60787566#0"/>
    <trip id="70" depart="6.00" from="-224940724#26" to="11624183"/>
    <trip id="71" depart="6.00" from="49200107" to="-11779284"/>
    <trip id="72" depart="6.00" from="-11617799#4" to="11619299"/>
    <trip id="73" depart="6.00" from="417403725#0" to="-11624029"/>
    <trip id="74" depart="6.00" from="-11621844" to="303379084"/>
    <trip id="75" depart="6.00" from="-11624183" to="-11624781"/>
    <trip id="76" depart="7.00" from="-11617336" to="426926196#6"/>
    <trip id="77" depart="7.00" from="-11615792" to="11621541#1"/>
    <trip id="78" depart="7.00" from="-11622361" to="-11623773#0"/>
    <trip id="79" depart="7.00" from="-11620575#6" to="11625072#1"/>
    <trip id="80" depart="7.00" from="-11613763" to="11619498#1"/>
    <trip id="81" depart="7.00" from="-224940668#2" to="11618508#2"/>
    <trip id="82" depart="7.00" from="-11623500#1" to="11620149"/>
    <trip id="83" depart="7.00" from="11618437" to="-11618827#0"/>
    <trip id="84" depart="7.00" from="-261719096" to="261713324"/>
    <trip id="85" depart="7.00" from="11624229#0" to="261719105"/>
    <trip id="86" depart="7.00" from="11620217#0" to="195846191#1"/>
    <trip id="87" depart="8.00" from="-11620525#2" to="-261719101"/>
    <trip id="88" depart="8.00" from="11619551#0" to="11622730"/>
    <trip id="89" depart="8.00" from="11622682#0" to="-11618520#0"/>
    <trip id="90" depart="8.00" from="423497698" to="426412567#6"/>
    <trip id="91" depart="8.00" from="11624781" to="122603905"/>
    <trip id="92" depart="8.00" from="-11622017" to="-11623387#0"/>
    <trip id="93" depart="9.00" from="-74761721#3" to="11617510#5"/>
    <trip id="94" depart="9.00" from="-11621452#8" to="-417403725#0"/>
    <trip id="95" depart="9.00" from="-11619357" to="11617937"/>
    <trip id="96" depart="9.00" from="11617771#0" to="11620940"/>
    <trip id="97" depart="9.00" from="-11621279" to="11619717"/>
    <trip id="98" depart="9.00" from="-438220437" to="-420895388#0"/>
    <trip id="99" depart="9.00" from="-11617937" to="11624582"/>
    <trip id="100" depart="9.00" from="11623676#0" to="11619751"/>
    <trip id="101" depart="9.00" from="-224940724#26" to="11620306#1"/>
    <trip id="102" depart="9.00" from="-237462020" to="11616476#2"/>
    <trip id="103" depart="9.00" from="-11624579#3" to="11618175#7"/>
    <trip id="104" depart="9.00" from="-11623374#1" to="11623854#2"/>
    <trip id="105" depart="10.00" from="-11613741#3" to="-426923881#0"/>
    <trip id="106" depart="10.00" from="-11618843#5" to="11621279"/>
    <trip id="107" depart="10.00" from="-11623351#2" to="11617640"/>
    <trip id="108" depart="11.00" from="11621456#0" to="243222044"/>
    <trip id="109" depart="11.00" from="256664450" to="11618715"/>
    <trip id="110" depart="11.00" from="-261713324" to="11623363"/>
    <trip id="111" depart="11.00" from="-243222044" to="423501578#1"/>
    <trip id="112" depart="11.00" from="-11619713#7" to="262489862#2"/>
    <trip id="113" depart="11.00" from="-11617404" to="11779205#1"/>
    <trip id="114" depart="11.00" from="11618657#0" to="11622639#1"/>
    <trip id="115" depart="12.00" from="11616496#0" to="-27827473#0"/>
    <trip id="116" depart="12.00" from="11777972" to="224940724#26"/>
    <trip id="117" depart="12.00" from="-11620088#4" to="426926196#6"/>
    <trip id="118" depart="12.00" from="421305945#0" to="11621279"/>
    <trip id="119" depart="12.00" from="-11624123" to="11623498"/>
    <trip id="120" depart="12.00" from="11617771#0" to="-11776550"/>
    <trip id="121" depart="12.00" from="-274709895#3" to="-11623773#0"/>
    <trip id="122" depart="12.00" from="11621593" to="11616641#4"/>
    <trip id="123" depart="12.00" from="11622060#0" to="11622730"/>
    <trip id="124" depart="12.00" from="-11617799#4" to="11617392#14"/>
    <trip id="125" depart="12.00" from="-11619350" to="-11619196#0"/>
    <trip id="126" depart="12.00" from="-11616717" to="11622544"/>
    <trip id="127" depart="13.00" from="11620217#0" to="-11621456#0"/>
    <trip id="128" depart="13.00" from="-11620217#1" to="11624750#7"/>
    <trip id="129" depart="13.00" from="11621593" to="11613734#6"/>
    <trip id="130" depart="13.00" from="11779284" to="224940652"/>
    <trip id="131" depart="13.00" from="-11623273" to="11620433#5"/>
    <trip id="132" depart="13.00" from="423497698" to="-11617514"/>
    <trip id="133" depart="13.00" from="11618827#0" to="-11619196#0"/>
    <trip id="134" depart="13.00" from="-11624798#1" to="122603819"/>
    <trip id="135" depart="13.00" from="-11617329#1" to="122603905"/>
    <trip id="136" depart="13.00" from="-11621041#7" to="-11622682#0"/>
    <trip id="137" depart="13.00" from="-11616476#3" to="11621457#3"/>
    <trip id="138" depart="14.00" from="-11617329#1" to="421351654#4"/>
    <trip id="139" depart="14.00" from="-11622335" to="11617571"/>
    <trip id="140" depart="14.00" from="27829500" to="11617609#1"/>
    <trip id="141" depart="14.00" from="61671719" to="-11624467#0"/>
    <trip id="142" depart="14.00" from="-11617597#1" to="11624606"/>
    <trip id="143" depart="14.00" from="-351451186" to="11618061#1"/>
    <trip id="144" depart="14.00" from="-11623366" to="11622583"/>
    <trip id="145" depart="14.00" from="-274709895#3" to="-11621128#0"/>
    <trip id="146" depart="14.00" from="-11616641#4" to="11617211"/>
    <trip id="147" depart="15.00" from="-11618438#1" to="11624183"/>
    <trip id="148" depart="15.00" from="-11623773#1" to="-338794354#0"/>
    <trip id="149" depart="15.00" from="-11622256#1" to="11623854#2"/>
    <trip id="150" depart="15.00" from="11618520#0" to="11618175#7"/>
    <trip id="151" depart="15.00" from="-11618716" to="11616731#1"/>
    <trip id="152" depart="15.00" from="-11622307#3" to="11620306#1"/>
    <trip id="153" depart="15.00" from="138613443#0" to="11621548"/>
    <trip id="154" depart="15.00" from="-11621456#1" to="11615792"/>
    <trip id="155" depart="15.00" from="11623753" to="11618843#5"/>
    <trip id="156" depart="15.00" from="423497698" to="-75309595"/>
    <trip id="157" depart="15.00" from="-11617392#14" to="54671929#1"/>
    <trip id="158" depart="16.00" from="-274709895#3" to="11620417"/>
    <trip id="159" depart="16.00" from="-11618609" to="11622315"/>
    <trip id="160" depart="16.00" from="-11623500#1" to="11623081"/>
    <trip id="161" depart="16.00" from="-11617642" to="11619751"/>
    <trip id="162" depart="16.00" from="-11617799#4" to="-421373641"/>
    <trip id="163" depart="16.00" from="-11617404" to="195846222#2"/>
    <trip id="164" depart="16.00" from="27827473#0" to="-11617771#0"/>
    <trip id="165" depart="17.00" from="390134528" to="11620726"/>
    <trip id="166" depart="17.00" from="-11619573" to="11623363"/>
    <trip id="167" depart="17.00" from="268206319#0" to="11618400#2"/>
    <trip id="168" depart="17.00" from="-11621456#1" to="11622338#1"/>
    <trip id="169" depart="17.00" from="-11618295#1" to="-61671712#0"/>
    <trip id="170" depart="18.00" from="-11621458" to="11619140#1"/>
    <trip id="171" depart="18.00" from="11618099" to="60787557#1"/>
    <trip id="172" depart="18.00" from="-11622361" to="11617571"/>
    <trip id="173" depart="18.00" from="-11619130" to="-421373641"/>
    <trip id="174" depart="19.00" from="75309599" to="-421351654#0"/>
    <trip id="175" depart="19.00" from="-11618438#1" to="438220437"/>
    <trip id="176" depart="19.00" from="-11616476#3" to="-421305945#0"/>
    <trip id="177" depart="19.00" from="11616496#0" to="60787557#1"/>
    <trip id="178" depart="19.00" from="-421351654#4" to="11617597#1"/>
    <trip id="179" depart="19.00" from="-11620728" to="-46965485"/>
    <trip id="180" depart="20.00" from="-11623351#2" to="11622109"/>
    <trip id="181" depart="20.00" from="-243222044" to="338794354#3"/>
    <trip id="182" depart="20.00" from="27239083#0" to="-11622256#0"/>
    <trip id="183" depart="20.00" from="-268206343#10" to="11617574"/>
    <trip id="184" depart="20.00" from="-224940668#2" to="274709895#3"/>
    <trip id="185" depart="20.00" from="11624119" to="11613763"/>
    <trip id="186" depart="20.00" from="75309582" to="11621844"/>
    <trip id="187" depart="20.00" from="-353307428" to="11617937"/>
    <trip id="188" depart="20.00" from="-11621061" to="11622583"/>
    <trip id="189" depart="20.00" from="-11619460" to="11620149"/>
    <trip id="190" depart="20.00" from="-11623597" to="-46965485"/>
    <trip id="191" depart="21.00" from="-11619751" to="11616731#1"/>
    <trip id="192" depart="21.00" from="27829500" to="11622361"/>
    <trip id="193" depart="21.00" from="-11622017" to="11622338#1"/>
    <trip id="194" depart="21.00" from="-224940668#2" to="11613734#6"/>
    <trip id="195" depart="21.00" from="-11618479" to="-421351654#0"/>
    <trip id="196" depart="21.00" from="-353008483" to="11622544"/>
    <trip id="197" depart="21.00" from="-11619573" to="11620217#1"/>
    <trip id="198" depart="21.00" from="-11615720" to="-61671719"/>
    <trip id="199" depart="21.00" from="-11620149" to="11622256#1"/>
    <trip id="200" depart="21.00" from="-11622109" to="-11623773#0"/>
    <trip id="201" depart="21.00" from="11624579#0" to="11622256#1"/>
    <trip id="202" depart="21.00" from="-11617510#5" to="11622815"/>
    <trip id="203" depart="21.00" from="-11621844" to="-424851734#0"/>
    <trip id="204" depart="21.00" from="-11616588" to="-11623773#0"/>
    <trip id="205" depart="22.00" from="11619532#0" to="-425442680#0"/>
    <trip id="206" depart="22.00" from="49200107" to="11615792"/>
    <trip id="207" depart="22.00" from="-261713324" to="-11779284"/>
    <trip id="208" depart="22.00" from="-11624183" to="11619751"/>
    <trip id="209" depart="22.00" from="-11620940" to="11619498#1"/>
    <trip id="210" depart="22.00" from="-11622730" to="11621837"/>
    <trip id="211" depart="23.00" from="-11621541#1" to="11622256#1"/>
    <trip id="212" depart="23.00" from="423497698" to="-11624029"/>
    <trip id="213" depart="23.00" from="261719101" to="195846191#1"/>
    <trip id="214" depart="23.00" from="268206319#0" to="11617196#8"/>
    <trip id="215" depart="23.00" from="-74761721#3" to="-424851734#0"/>
    <trip id="216" depart="23.00" from="56054062" to="353307428"/>
    <trip id="217" depart="23.00" from="-11779205#1" to="-11618499#0"/>
    <trip id="218" depart="23.00" from="-11616750#1" to="-11622453#0"/>
    <trip id="219" depart="23.00" from="-261713324" to="11616476#2"/>
    <trip id="220" depart="24.00" from="74762843" to="351451186"/>
    <trip id="221" depart="24.00" from="134867012#0" to="-27827487#0"/>
    <trip id="222" depart="24.00" from="11625052" to="353008483"/>
    <trip id="223" depart="24.00" from="27829500" to="11615529"/>
    <trip id="224" depart="24.00" from="-11624183" to="11617055"/>
    <trip id="225" depart="24.00" from="138613443#0" to="11618061#1"/>
    <trip id="226" depart="24.00" from="11619397" to="268206343#10"/>
    <trip id="227" depart="24.00" from="11618330#0" to="11618716"/>
    <trip id="228" depart="24.00" from="420895388#0" to="11617196#8"/>
    <trip id="229" depart="24.00" from="11622060#0" to="-11621593"/>
    <trip id="230" depart="25.00" from="-11624276#1" to="11619717"/>
    <trip id="231" depart="25.00" from="-11623087" to="-11622453#0"/>
    <trip id="232" depart="25.00" from="-11617404" to="-11783723"/>
    <trip id="233" depart="25.00" from="-11618716" to="475835715#1"/>
    <trip id="234" depart="25.00" from="-11623366" to="11621456#1"/>
    <trip id="235" depart="25.00" from="11781328#0" to="54672534"/>
    <trip id="236" depart="25.00" from="11624781" to="421351654#4"/>
    <trip id="237" depart="25.00" from="-438220437" to="11619299"/>
    <trip id="238" depart="26.00" from="11625091#0" to="-11622789"/>
    <trip id="239" depart="26.00" from="-11613767" to="425408799"/>
    <trip id="240" depart="26.00" from="-11621073" to="11617574"/>
    <trip id="241" depart="26.00" from="-352856901" to="11618175#7"/>
    <trip id="242" depart="26.00" from="-11623366" to="11617287#3"/>
    <trip id="243" depart="26.00" from="138613443#0" to="11616588"/>
    <trip id="244" depart="26.00" from="-424473202" to="146405263#2"/>
    <trip id="245" depart="26.00" from="-11620527" to="11615720"/>
    <trip id="246" depart="26.00" from="-11625072#1" to="-11624179"/>
    <trip id="247" depart="27.00" from="-11620527" to="-195844772#0"/>
    <trip id="248" depart="27.00" from="-11624123" to="237462020"/>
    <trip id="249" depart="27.00" from="11617771#0" to="-11620217#0"/>
    <trip id="250" depart="27.00" from="11623676#0" to="11617196#8"/>
    <trip id="251" depart="27.00" from="-353008483" to="-11620163"/>
    <trip id="252" depart="27.00" from="-11623148#1" to="-475835715#0"/>
    <trip id="253" depart="27.00" from="11621456#0" to="11615529"/>
    <trip id="254" depart="27.00" from="195846218" to="-195846422#0"/>
    <trip id="255" depart="27.00" from="134867012#0" to="11620561"/>
    <trip id="256" depart="27.00" from="-11617287#3" to="11625072#1"/>
    <trip id="257" depart="27.00" from="134868538#0" to="425431904"/>
    <trip id="258" depart="27.00" from="27239083#0" to="11621456#1"/>
    <trip id="259" depart="27.00" from="-11619713#7" to="11619140#1"/>
    <trip id="260" depart="28.00" from="422514772#0" to="11622583"/>
    <trip id="261" depart="28.00" from="11622060#0" to="-421305945#0"/>
    <trip id="262" depart="28.00" from="-11618295#1" to="-195846218"/>
    <trip id="263" depart="28.00" from="11618202#0" to="11622114#6"/>
    <trip id="264" depart="28.00" from="-11617640" to="11779205#1"/>
    <trip id="265" depart="28.00" from="-423501382#1" to="11618345"/>
    <trip id="266" depart="28.00" from="-11619751" to="11624798#1"/>
    <trip id="267" depart="28.00" from="11619506#0" to="-11618746"/>
    <trip id="268" depart="28.00" from="-261713324" to="11619357"/>
    <trip id="269" depart="28.00" from="-11622510" to="261713324"/>
    <trip id="270" depart="29.00" from="422514772#0" to="11618400#2"/>
    <trip id="271" depart="29.00" from="-11618508#2" to="338794354#3"/>
    <trip id="272" depart="29.00" from="-11616750#1" to="11618843#5"/>
    <trip id="273" depart="29.00" from="-11618609" to="11620527"/>
    <trip id="274" depart="29.00" from="27827481#0" to="11623868"/>
    <trip id="275" depart="30.00" from="-425408799" to="-11617514"/>
    <trip id="276" depart="30.00" from="-11618779#2" to="-75309595"/>
    <trip id="277" depart="30.00" from="420895388#0" to="-11624179"/>
    <trip id="278" depart="30.00" from="-11621844" to="11619227"/>
    <trip id="279" depart="30.00" from="-11617336" to="11621452#8"/>
    <trip id="280" depart="30.00" from="61671697" to="11619881#1"/>
    <trip id="281" depart="30.00" from="-11619130" to="422709491"/>
    <trip id="282" depart="30.00" from="-11617571" to="-475835714#0"/>
    <trip id="283" depart="30.00" from="-11619717" to="-426923881#0"/>
    <trip id="284" depart="31.00" from="27827487#0" to="49200100#1"/>
    <trip id="285" depart="31.00" from="-11621844" to="358952990"/>
    <trip id="286" depart="31.00" from="-11624579#3" to="11616641#4"/>
    <trip id="287" depart="31.00" from="-11621844" to="11623366"/>
    <trip id="288" depart="31.00" from="-475835714#1" to="11621970"/>
    <trip id="289" depart="31.00" from="-11618066#4" to="-11623570"/>
    <trip id="290" depart="31.00" from="-11620728" to="-195844772#0"/>
    <trip id="291" depart="31.00" from="60787566#0" to="11613741#3"/>
    <trip id="292" depart="31.00" from="46965485" to="-11616506#0"/>
    <trip id="293" depart="31.00" from="-11620527" to="11619881#1"/>
    <trip id="294" depart="31.00" from="11624229#0" to="-11620837"/>
    <trip id="295" depart="31.00" from="-303379084" to="-195846422#0"/>
    <trip id="296" depart="31.00" from="-224940652" to="11616750#1"/>
    <trip id="297" depart="31.00" from="-11619299" to="11622307#3"/>
    <trip id="298" depart="31.00" from="46965485" to="11617640"/>
    <trip id="299" depart="32.00" from="-11615720" to="-11622060#0"/>
    <trip id="300" depart="32.00" from="-11623729#1" to="11622510"/>
    <trip id="301" depart="32.00" from="-11621548" to="11620940"/>
    <trip id="302" depart="32.00" from="-11624750#7" to="268206343#10"/>
    <trip id="303" depart="32.00" from="-11624579#3" to="11622416"/>
    <trip id="304" depart="33.00" from="11623773#0" to="11623351#2"/>
    <trip id="305" depart="33.00" from="-11614336" to="11613763"/>
    <trip id="306" depart="33.00" from="-11617566#1" to="-11622789"/>
    <trip id="307" depart="33.00" from="11620163" to="426412567#6"/>
    <trip id="308" depart="33.00" from="60787566#0" to="11622510"/>
    <trip id="309" depart="33.00" from="11624229#0" to="11619130"/>
    <trip id="310" depart="33.00" from="-11623729#1" to="11619460"/>
    <trip id="311" depart="33.00" from="-11619573" to="422709491"/>
    <trip id="312" depart="33.00" from="-11623366" to="-195846422#0"/>
    <trip id="313" depart="34.00" from="75309582" to="11623351#2"/>
    <trip id="314" depart="34.00" from="11621128#0" to="-74760053"/>
    <trip id="315" depart="34.00" from="-11622618" to="11620088#4"/>
    <trip id="316" depart="34.00" from="11614997#0" to="11620492#1"/>
    <trip id="317" depart="34.00" from="-358952990" to="-426923881#0"/>
    <trip id="318" depart="34.00" from="-11621548" to="-11620845#0"/>
    <trip id="319" depart="34.00" from="-11622730" to="-27827473#0"/>
    <trip id="320" depart="34.00" from="-261719105" to="11619299"/>
    <trip id="321" depart="34.00" from="425442680#0" to="54671929#1"/>
    <trip id="322" depart="34.00" from="-11613741#3" to="-11619506#0"/>
    <trip id="323" depart="34.00" from="-11613763" to="11619713#7"/>
    <trip id="324" depart="34.00" from="-11615529" to="-11616506#0"/>
    <trip id="325" depart="34.00" from="-11619573" to="-60787965#0"/>
    <trip id="326" depart="34.00" from="-11620305" to="-195846422#0"/>
    <trip id="327" depart="34.00" from="-423261719#2" to="11618295#1"/>
    <trip id="328" depart="35.00" from="-11623413" to="-11617668"/>
    <trip id="329" depart="35.00" from="11618202#0" to="11623498"/>
    <trip id="330" depart="35.00" from="-11619140#1" to="338794354#3"/>
    <trip id="331" depart="35.00" from="11778056" to="261713324"/>
    <trip id="332" depart="35.00" from="256664450" to="-11624179"/>
    <trip id="333" depart="35.00" from="-11621279" to="11614336"/>
    <trip id="334" depart="35.00" from="-11619690" to="11623363"/>
    <trip id="335" depart="35.00" from="56054062" to="11624606"/>
    <trip id="336" depart="35.00" from="-11621279" to="-420895388#0"/>
    <trip id="337" depart="35.00" from="-11616641#4" to="-420895388#0"/>
    <trip id="338" depart="35.00" from="-11622315" to="11618345"/>
    <trip id="339" depart="35.00" from="195846422#0" to="261713324"/>
    <trip id="340" depart="35.00" from="-11617401" to="11624234#1"/>
    <trip id="341" depart="36.00" from="-11618400#2" to="-11777600"/>
    <trip id="342" depart="36.00" from="-11624750#7" to="11621442#9"/>
    <trip id="343" depart="36.00" from="-11617566#1" to="11621061"/>
    <trip id="344" depart="36.00" from="11618437" to="-11778056"/>
    <trip id="345" depart="36.00" from="-11623868" to="11619881#1"/>
    <trip id="346" depart="36.00" from="-11619350" to="11619690"/>
    <trip id="347" depart="36.00" from="-11622361" to="426926196#6"/>
    <trip id="348" depart="37.00" from="49200107" to="-11618437"/>
    <trip id="349" depart="37.00" from="11616506#0" to="438220437"/>
    <trip id="350" depart="37.00" from="-11620492#1" to="195846191#1"/>
    <trip id="351" depart="37.00" from="-11623387#1" to="11616588"/>
    <trip id="352" depart="37.00" from="475835715#0" to="11622416"/>
    <trip id="353" depart="37.00" from="-11617640" to="-11623753"/>
    <trip id="354" depart="37.00" from="-11620160" to="-74762843"/>
    <trip id="355" depart="37.00" from="-11619713#7" to="11623498"/>
    <trip id="356" depart="37.00" from="-11619717" to="-11776550"/>
    <trip id="357" depart="37.00" from="-11622510" to="11621041#7"/>
    <trip id="358" depart="37.00" from="11618437" to="-195844772#0"/>
    <trip id="359" depart="38.00" from="-11621844" to="11618609"/>
    <trip id="360" depart="38.00" from="-11617196#8" to="11616717"/>
    <trip id="361" depart="38.00" from="-11617392#14" to="-75309582"/>
    <trip id="362" depart="38.00" from="-11617329#1" to="11621947"/>
    <trip id="363" depart="38.00" from="-11619299" to="-75309599"/>
    <trip id="364" depart="38.00" from="256664450" to="-421305945#0"/>
    <trip id="365" depart="38.00" from="-224940641#3" to="424473202"/>
    <trip id="366" depart="38.00" from="11617959" to="-11618827#0"/>
    <trip id="367" depart="38.00" from="-11622361" to="11621837"/>
    <trip id="368" depart="38.00" from="-11622335" to="11617392#14"/>
    <trip id="369" depart="39.00" from="11622682#0" to="-417403725#0"/>
    <trip id="370" depart="39.00" from="-243222044" to="11620305"/>
    <trip id="371" depart="39.00" from="-421351654#4" to="11620149"/>
    <trip id="372" depart="39.00" from="-475835714#1" to="-11618955#0"/>
    <trip id="373" depart="39.00" from="-11617574" to="11623413"/>
    <trip id="374" depart="39.00" from="-11624579#3" to="11779205#1"/>
    <trip id="375" depart="39.00" from="-224940652" to="-11616506#0"/>
    <trip id="376" depart="39.00" from="27829389" to="-11619397"/>
    <trip id="377" depart="40.00" from="-11620726" to="60787550#1"/>
    <trip id="378" depart="40.00" from="-11619299" to="352856901"/>
    <trip id="379" depart="40.00" from="-421351654#4" to="11617640"/>
    <trip id="380" depart="40.00" from="11616607#0" to="425408799"/>
    <trip id="381" depart="40.00" from="-11618716" to="-11616506#0"/>
    <trip id="382" depart="40.00" from="-11623148#1" to="11621837"/>
    <trip id="383" depart="40.00" from="11622256#0" to="-11621566#0"/>
    <trip id="384" depart="40.00" from="-11624597" to="195846222#2"/>
    <trip id="385" depart="40.00" from="-11619460" to="49200100#1"/>
    <trip id="386" depart="41.00" from="-60787550#1" to="-11781328#0"/>
    <trip id="387" depart="41.00" from="426923881#0" to="-27239083#0"/>
    <trip id="388" depart="41.00" from="-11617211" to="11618455"/>
    <trip id="389" depart="41.00" from="-353307428" to="11617640"/>
    <trip id="390" depart="41.00" from="-11618508#2" to="475835715#1"/>
    <trip id="391" depart="41.00" from="134868538#0" to="-261713321"/>
    <trip id="392" depart="41.00" from="-11617759#1" to="-11618955#0"/>
    <trip id="393" depart="41.00" from="-11622730" to="-75309583"/>
    <trip id="394" depart="41.00" from="-11614336" to="11618716"/>
    <trip id="395" depart="41.00" from="-426926196#6" to="-75285206#0"/>
    <trip id="396" depart="41.00" from="-224940652" to="11618066#4"/>
    <trip id="397" depart="42.00" from="195846214" to="424473202"/>
    <trip id="398" depart="42.00" from="-475835715#1" to="11618438#1"/>
    <trip id="399" depart="42.00" from="-11620417" to="-195846214"/>
    <trip id="400" depart="42.00" from="11625091#0" to="338794354#3"/>
    <trip id="401" depart="42.00" from="475835715#0" to="11614336"/>
    <trip id="402" depart="42.00" from="-11620149" to="11617392#14"/>
    <trip id="403" depart="42.00" from="-11623351#2" to="303379084"/>
    <trip id="404" depart="43.00" from="-11617336" to="11621061"/>
    <trip id="405" depart="43.00" from="-11624183" to="11624582"/>
    <trip id="406" depart="43.00" from="-11623498" to="-11624467#0"/>
    <trip id="407" depart="43.00" from="-11624234#1" to="11619717"/>
    <trip id="408" depart="43.00" from="-11618779#2" to="475835714#1"/>
    <trip id="409" depart="43.00" from="60787965#0" to="-11622789"/>
    <trip id="410" depart="43.00" from="-11618444" to="11613741#3"/>
    <trip id="411" depart="43.00" from="-11618455" to="11616588"/>
    <trip id="412" depart="43.00" from="-11620305" to="11618827#1"/>
    <trip id="413" depart="43.00" from="-351451186" to="11620160"/>
    <trip id="414" depart="43.00" from="-11622510" to="-11623773#0"/>
    <trip id="415" depart="43.00" from="-11780942#3" to="11619498#1"/>
    <trip id="416" depart="44.00" from="422514772#0" to="-11616496#0"/>
    <trip id="417" depart="44.00" from="171927284" to="-134868538#0"/>
    <trip id="418" depart="44.00" from="-11623374#1" to="-11622060#0"/>
    <trip id="419" depart="44.00" from="-11622618" to="11615720"/>
    <trip id="420" depart="44.00" from="-11617336" to="-27827483#0"/>
    <trip id="421" depart="44.00" from="11619196#0" to="11618345"/>
    <trip id="422" depart="44.00" from="138613443#0" to="11624750#7"/>
    <trip id="423" depart="44.00" from="-11624123" to="11623854#2"/>
    <trip id="424" depart="45.00" from="-11624669" to="11622315"/>
    <trip id="425" depart="45.00" from="11618202#0" to="11617799#4"/>
    <trip id="426" depart="45.00" from="-11615720" to="-11623570"/>
    <trip id="427" depart="45.00" from="-11779205#1" to="-11617959"/>
    <trip id="428" depart="45.00" from="11779284" to="54671929#1"/>