<?xml version="1.0" encoding="UTF-8"?>
<!-- generated on 2018-04-01 01:18:47.480061 by $Id$
  options: -n newark.net.xml -e 1000 <doubleminus>fringe-factor 10e+100 <doubleminus>period 0.001 <doubleminus>binomial 30 <doubleminus>route-file routes_newark.xml
-->
<routes xmlns:xsi="http://www.w3.org/2001/XMLSchema-instance" xsi:noNamespaceSchemaLocation="http://sumo.dlr.de/xsd/routes_file.xsd">
    <trip id="0" depart="0.00" from="-27239078#6" to="-11623830"/>
    <trip id="1" depart="0.00" from="11618099#0" to="49200097#2"/>
    <trip id="2" depart="0.00" from="11618499#0" to="438362016"/>
    <trip id="3" depart="0.00" from="27829500" to="-268206317#0"/>
    <trip id="4" depart="0.00" from="422709488" to="11619130"/>
    <trip id="5" depart="0.00" from="-268206344" to="38312432#1"/>
    <trip id="6" depart="0.00" from="-54672534" to="11619138"/>
    <trip id="7" depart="0.00" from="-11620525#2" to="11618230"/>
    <trip id="8" depart="0.00" from="11621455#0" to="26968334#2"/>
    <trip id="9" depart="0.00" from="-11616750#1" to="261719096"/>
    <trip id="10" depart="0.00" from="11620163" to="11617515"/>
    <trip id="11" depart="0.00" from="-11618827#1" to="261719105"/>
    <trip id="12" depart="0.00" from="11619005" to="49200096#2"/>
    <trip id="13" depart="0.00" from="-11624750#12" to="11621844"/>
    <trip id="14" depart="0.00" from="-60787970#2" to="-60785883#0"/>
    <trip id="15" depart="0.00" from="60254480" to="11620492#1"/>
    <trip id="16" depart="0.00" from="261713325" to="-11621593"/>
    <trip id="17" depart="0.00" from="-11617072#3" to="-415459430#0"/>
    <trip id="18" depart="0.00" from="-11624234" to="61671789#2"/>
    <trip id="19" depart="0.00" from="423502953" to="27244725#2"/>
    <trip id="20" depart="0.00" from="-425195349#6" to="122603819"/>
    <trip id="21" depart="0.00" from="11622256#0" to="-11625052"/>
    <trip id="22" depart="0.00" from="-11622307#3" to="11614340"/>
    <trip id="23" depart="0.00" from="-11616431" to="-11618499#0"/>
    <trip id="24" depart="0.00" from="28274780#0" to="150715641#2"/>
    <trip id="25" depart="0.00" from="-11622697#1" to="124369892"/>
    <trip id="26" depart="0.00" from="11618827#0" to="-11616496#0"/>
    <trip id="27" depart="0.00" from="11617851" to="-11622482#0"/>
    <trip id="28" depart="0.00" from="-11619132#1" to="49200269"/>
    <trip id="29" depart="0.00" from="11623782" to="-262807636#0"/>
    <trip id="30" depart="1.00" from="11623782" to="11620299"/>
    <trip id="31" depart="1.00" from="-49200096#2" to="358952990"/>
    <trip id="32" depart="1.00" from="-11622198#1" to="-421305945#0"/>
    <trip id="33" depart="1.00" from="11624781" to="11616750#1"/>
    <trip id="34" depart="1.00" from="11618221" to="-132500850#0"/>
    <trip id="35" depart="1.00" from="11620838" to="-11618827#0"/>
    <trip id="36" depart="1.00" from="-11619132#1" to="-261713325"/>
    <trip id="37" depart="1.00" from="-11619460" to="11620299"/>
    <trip id="38" depart="1.00" from="-11616431" to="56393009#1"/>
    <trip id="39" depart="1.00" from="60787958" to="421351654#4"/>
    <trip id="40" depart="1.00" from="-11621970" to="11618715"/>
    <trip id="41" depart="1.00" from="415459430#0" to="423261719#2"/>
    <trip id="42" depart="1.00" from="-11620527" to="-11619314#0"/>
    <trip id="43" depart="1.00" from="-11621372" to="11620058"/>
    <trip id="44" depart="1.00" from="422873497#0" to="425442685"/>
    <trip id="45" depart="1.00" from="-11618345" to="11618230"/>
    <trip id="46" depart="1.00" from="11620850#0" to="-11618330#0"/>
    <trip id="47" depart="1.00" from="-11620088#12" to="10819037#2"/>
    <trip id="48" depart="1.00" from="-11620575#6" to="11617597#2"/>
    <trip id="49" depart="1.00" from="-359399607" to="224940628#2"/>
    <trip id="50" depart="1.00" from="60787565#0" to="-421351654#0"/>
    <trip id="51" depart="1.00" from="124369888" to="11622256#1"/>
    <trip id="52" depart="1.00" from="-49200101#2" to="11624234"/>
    <trip id="53" depart="1.00" from="-261713328#2" to="-261719103"/>
    <trip id="54" depart="1.00" from="-11619717" to="-60787958"/>
    <trip id="55" depart="1.00" from="-425408799" to="60785882#4"/>
    <trip id="56" depart="1.00" from="-11617336" to="-60787958"/>
    <trip id="57" depart="1.00" from="60787565#0" to="11618508#2"/>
    <trip id="58" depart="1.00" from="-11620058" to="262807543#3"/>
    <trip id="59" depart="1.00" from="11618827#0" to="-11618221"/>
    <trip id="60" depart="2.00" from="24279066#0" to="11617072#3"/>
    <trip id="61" depart="2.00" from="-358952990" to="27244725#2"/>
    <trip id="62" depart="2.00" from="60254480" to="11617856#1"/>
    <trip id="63" depart="2.00" from="261719103" to="261713328#2"/>
    <trip id="64" depart="2.00" from="261713315" to="11622315"/>
    <trip id="65" depart="2.00" from="46965482#0" to="-421373641"/>
    <trip id="66" depart="2.00" from="-11621096" to="124369892"/>
    <trip id="67" depart="2.00" from="-11621549" to="11620492#1"/>
    <trip id="68" depart="2.00" from="-11620047#2" to="11620471#13"/>
    <trip id="69" depart="2.00" from="61671783" to="11619396"/>
    <trip id="70" depart="2.00" from="11620279#0" to="-261719103"/>
    <trip id="71" depart="2.00" from="-426412565#4" to="429419775#5"/>
    <trip id="72" depart="2.00" from="11621593" to="11619457#2"/>
    <trip id="73" depart="2.00" from="-11621372" to="11622535#2"/>
    <trip id="74" depart="2.00" from="11618099#0" to="425442682#5"/>
    <trip id="75" depart="2.00" from="-423229769#4" to="572297853"/>
    <trip id="76" depart="2.00" from="11622137" to="195846213#1"/>
    <trip id="77" depart="2.00" from="268206256#0" to="357233525"/>
    <trip id="78" depart="2.00" from="-11621844" to="11617746"/>
    <trip id="79" depart="2.00" from="11617851" to="429419775#5"/>
    <trip id="80" depart="2.00" from="-261719096" to="49200101#2"/>
    <trip id="81" depart="2.00" from="11620838" to="11618609"/>
    <trip id="82" depart="2.00" from="11618202" to="351451186"/>
    <trip id="83" depart="2.00" from="24279066#0" to="423229769#4"/>
    <trip id="84" depart="2.00" from="261713315" to="11622315"/>
    <trip id="85" depart="2.00" from="11617851" to="11616731#1"/>
    <trip id="86" depart="2.00" from="261713325" to="11620088#12"/>
    <trip id="87" depart="2.00" from="11622682#0" to="11623854#2"/>
    <trip id="88" depart="2.00" from="11619532#0" to="11622028"/>
    <trip id="89" depart="2.00" from="-11622697#1" to="-11619005"/>
    <trip id="90" depart="3.00" from="27829495#0" to="424473202"/>
    <trip id="91" depart="3.00" from="27829507#0" to="-11618221"/>
    <trip id="92" depart="3.00" from="261719103" to="195846213#1"/>
    <trip id="93" depart="3.00" from="-11619132#1" to="11624798#1"/>
    <trip id="94" depart="3.00" from="-424473202" to="11622198#1"/>
    <trip id="95" depart="3.00" from="11618499#0" to="49200269"/>
    <trip id="96" depart="3.00" from="-11624710" to="60785882#4"/>
    <trip id="97" depart="3.00" from="-195846217#3" to="262807543#3"/>
    <trip id="98" depart="3.00" from="-11617072#3" to="11619457#2"/>
    <trip id="99" depart="3.00" from="11621689#0" to="-27829495#0"/>
    <trip id="100" depart="3.00" from="-11625060" to="-11623782"/>
    <trip id="101" depart="3.00" from="-11614336" to="38312440#7"/>
    <trip id="102" depart="3.00" from="261719103" to="11623413"/>
    <trip id="103" depart="3.00" from="-429419775#5" to="-11624233#0"/>
    <trip id="104" depart="3.00" from="-11622535#2" to="11617287#2"/>
    <trip id="105" depart="3.00" from="-11618508#2" to="-11619506#0"/>
    <trip id="106" depart="3.00" from="-572297853" to="11622198#1"/>
    <trip id="107" depart="3.00" from="11616519#0" to="11621844"/>
    <trip id="108" depart="3.00" from="11620385#0" to="-261713325"/>
    <trip id="109" depart="3.00" from="11624233#0" to="27239078#6"/>
    <trip id="110" depart="3.00" from="-11620914" to="-11625052"/>
    <trip id="111" depart="3.00" from="-11622198#1" to="11619881#3"/>
    <trip id="112" depart="3.00" from="-572297853" to="-11623830"/>
    <trip id="113" depart="3.00" from="11621455#0" to="-11618051#0"/>
    <trip id="114" depart="3.00" from="-351451186" to="359399607"/>
    <trip id="115" depart="3.00" from="150715641#0" to="-11622256#0"/>
    <trip id="116" depart="3.00" from="46965482#0" to="-11624029"/>
    <trip id="117" depart="3.00" from="-11618154" to="195846217#3"/>
    <trip id="118" depart="3.00" from="-425442685" to="11622697#1"/>
    <trip id="119" depart="3.00" from="-11619460" to="-11616496#0"/>
    <trip id="120" depart="4.00" from="422873497#0" to="11618154"/>
    <trip id="121" depart="4.00" from="11617851" to="11617336"/>
    <trip id="122" depart="4.00" from="422873497#0" to="486526703"/>
    <trip id="123" depart="4.00" from="11623830" to="-27829503#0"/>
    <trip id="124" depart="4.00" from="150715641#0" to="438362016"/>
    <trip id="125" depart="4.00" from="-358952990" to="-415459430#0"/>
    <trip id="126" depart="4.00" from="420818199#0" to="-11625052"/>
    <trip id="127" depart="4.00" from="-60785882#4" to="11619881#3"/>
    <trip id="128" depart="4.00" from="-11620047#2" to="11622307#3"/>
    <trip id="129" depart="4.00" from="-195846217#3" to="234472440"/>
    <trip id="130" depart="4.00" from="262807636#0" to="11623854#2"/>
    <trip id="131" depart="4.00" from="-11618499#1" to="-11618221"/>
    <trip id="132" depart="4.00" from="-11617759#1" to="-11624781"/>
    <trip id="133" depart="4.00" from="61671799" to="38312432#1"/>
    <trip id="134" depart="4.00" from="-11617759#1" to="11622535#2"/>
    <trip id="135" depart="4.00" from="11619532#0" to="224940728#3"/>
    <trip id="136" depart="4.00" from="-11622256#1" to="49200097#2"/>
    <trip id="137" depart="4.00" from="11625052" to="-11618051#0"/>
    <trip id="138" depart="4.00" from="318739375" to="11617759#1"/>
    <trip id="139" depart="4.00" from="124369888" to="-422873497#0"/>
    <trip id="140" depart="4.00" from="11620385#0" to="423261719#2"/>
    <trip id="141" depart="4.00" from="10818454#0" to="11618154"/>
    <trip id="142" depart="4.00" from="61671799" to="-11618330#0"/>
    <trip id="143" depart="4.00" from="11621689#0" to="11621372"/>
    <trip id="144" depart="4.00" from="-11625069#2" to="195846213#1"/>
    <trip id="145" depart="4.00" from="11620838" to="-422873497#0"/>
    <trip id="146" depart="4.00" from="-11616731#1" to="-11622682#0"/>
    <trip id="147" depart="4.00" from="11624390#0" to="-27829495#0"/>
    <trip id="148" depart="4.00" from="-351451186" to="11618292#1"/>
    <trip id="149" depart="4.00" from="420818157" to="24279066#2"/>
    <trip id="150" depart="5.00" from="-11623377#1" to="38312432#1"/>
    <trip id="151" depart="5.00" from="-11620299" to="11622028"/>
    <trip id="152" depart="5.00" from="-425408799" to="38312432#1"/>
    <trip id="153" depart="5.00" from="421351654#0" to="49200097#2"/>
    <trip id="154" depart="5.00" from="-425442685" to="261719096"/>
    <trip id="155" depart="5.00" from="-195846217#3" to="11620937#1"/>
    <trip id="156" depart="5.00" from="11623830" to="11623087"/>
    <trip id="157" depart="5.00" from="261719103" to="262807543#3"/>
    <trip id="158" depart="5.00" from="195846184" to="572297853"/>
    <trip id="159" depart="5.00" from="-11616587#2" to="11617597#2"/>
    <trip id="160" depart="5.00" from="11625052" to="11617759#1"/>
    <trip id="161" depart="5.00" from="11618330#0" to="-11624233#0"/>
    <trip id="162" depart="5.00" from="56393021#0" to="11622697#1"/>
    <trip id="163" depart="5.00" from="10818454#0" to="572297853"/>
    <trip id="164" depart="5.00" from="-11620299" to="11624377"/>
    <trip id="165" depart="5.00" from="-572297853" to="11618230"/>
    <trip id="166" depart="5.00" from="-11622256#1" to="11617336"/>
    <trip id="167" depart="5.00" from="-11620914" to="-11616519#0"/>
    <trip id="168" depart="5.00" from="421351654#0" to="-11618499#0"/>
    <trip id="169" depart="5.00" from="-11618230" to="262807522#2"/>
    <trip id="170" depart="5.00" from="27827487#0" to="234472440"/>
    <trip id="171" depart="5.00" from="415459430#0" to="11622028"/>
    <trip id="172" depart="5.00" from="420892235#0" to="11623377#1"/>
    <trip id="173" depart="5.00" from="11619506#0" to="224940712#2"/>
    <trip id="174" depart="5.00" from="-11616750#1" to="-11624119"/>
    <trip id="175" depart="5.00" from="10818454#0" to="425442682#5"/>
    <trip id="176" depart="5.00" from="-11620525#2" to="-11624390#0"/>
    <trip id="177" depart="5.00" from="11616519#0" to="479829297#2"/>
    <trip id="178" depart="5.00" from="-11617515" to="-11620850#0"/>
    <trip id="179" depart="5.00" from="-421351654#4" to="-11622482#0"/>
    <trip id="180" depart="6.00" from="11624029" to="11622067#2"/>
    <trip id="181" depart="6.00" from="268206256#0" to="-27827487#0"/>
    <trip id="182" depart="6.00" from="-11618827#1" to="-11618827#0"/>
    <trip id="183" depart="6.00" from="11624233#0" to="-11621689#0"/>
    <trip id="184" depart="6.00" from="-429419775#5" to="11614340"/>
    <trip id="185" depart="6.00" from="-426412565#4" to="-11618499#0"/>
    <trip id="186" depart="6.00" from="-11623087" to="10818454#2"/>
    <trip id="187" depart="6.00" from="-49200096#2" to="-60787965#0"/>
    <trip id="188" depart="6.00" from="11620385#0" to="11622256#1"/>
    <trip id="189" depart="6.00" from="27829503#0" to="262807543#3"/>
    <trip id="190" depart="6.00" from="60787965#0" to="261713328#2"/>
    <trip id="191" depart="6.00" from="-11622028" to="11617759#1"/>
    <trip id="192" depart="6.00" from="11618051#0" to="60785882#4"/>
    <trip id="193" depart="6.00" from="-11623413" to="11622416"/>
    <trip id="194" depart="6.00" from="11622482#0" to="11617856#1"/>
    <trip id="195" depart="6.00" from="27829503#0" to="-11624119"/>
    <trip id="196" depart="6.00" from="-423261719#2" to="11616750#1"/>
    <trip id="197" depart="6.00" from="-11624750#12" to="11621096"/>
    <trip id="198" depart="6.00" from="-11616431" to="54672534"/>
    <trip id="199" depart="6.00" from="261713315" to="11614336"/>
    <trip id="200" depart="6.00" from="-11622256#1" to="195846217#3"/>
    <trip id="201" depart="6.00" from="24279066#0" to="11619132#1"/>
    <trip id="202" depart="6.00" from="11618999#0" to="-11622682#0"/>
    <trip id="203" depart="6.00" from="11618999#0" to="26968334#2"/>
    <trip id="204" depart="6.00" from="268206256#0" to="-11622256#0"/>
    <trip id="205" depart="6.00" from="11622482#0" to="-261713325"/>
    <trip id="206" depart="6.00" from="421351654#0" to="11620527"/>
    <trip id="207" depart="6.00" from="11618330#0" to="423261719#2"/>
    <trip id="208" depart="6.00" from="-11618345" to="479829297#2"/>
    <trip id="209" depart="6.00" from="11621455#0" to="11622315"/>
    <trip id="210" depart="7.00" from="-11621458" to="-60787965#0"/>
    <trip id="211" depart="7.00" from="11620385#0" to="358952990"/>
    <trip id="212" depart="7.00" from="-60787970#2" to="11624234"/>
    <trip id="213" depart="7.00" from="-11622697#1" to="11614340"/>
    <trip id="214" depart="7.00" from="-224940628#2" to="-11616570#0"/>
    <trip id="215" depart="7.00" from="11618330#0" to="11618715"/>
    <trip id="216" depart="7.00" from="11620850#0" to="423229769#4"/>
    <trip id="217" depart="7.00" from="424851734#0" to="11618154"/>
    <trip id="218" depart="7.00" from="-261713328#2" to="-11622256#0"/>
    <trip id="219" depart="7.00" from="261719103" to="11616587#2"/>
    <trip id="220" depart="7.00" from="423502953" to="262807522#2"/>
    <trip id="221" depart="7.00" from="-11620914" to="-60787516#0"/>
    <trip id="222" depart="7.00" from="-358952990" to="-11615252#0"/>
    <trip id="223" depart="7.00" from="261719103" to="-11618696"/>
    <trip id="224" depart="7.00" from="-11623377#1" to="11619457#2"/>
    <trip id="225" depart="7.00" from="61671799" to="-420892235#0"/>
    <trip id="226" depart="7.00" from="-11618345" to="424473202"/>
    <trip id="227" depart="7.00" from="-11616587#2" to="262807522#2"/>
    <trip id="228" depart="7.00" from="424851734#0" to="-46965482#0"/>
    <trip id="229" depart="7.00" from="11624119" to="425408799"/>
    <trip id="230" depart="7.00" from="-11619460" to="358952990"/>
    <trip id="231" depart="7.00" from="11618827#0" to="-60787958"/>
    <trip id="232" depart="7.00" from="11622482#0" to="11621458"/>
    <trip id="233" depart="7.00" from="-423229769#4" to="11617759#1"/>
    <trip id="234" depart="7.00" from="-11619138" to="11624710"/>
    <trip id="235" depart="7.00" from="-11617072#3" to="11616731#1"/>
    <trip id="236" depart="7.00" from="61671783" to="60785882#4"/>
    <trip id="237" depart="7.00" from="150715641#0" to="11618292#1"/>
    <trip id="238" depart="7.00" from="-60785882#4" to="-60787958"/>
    <trip id="239" depart="7.00" from="421351654#0" to="-11619314#0"/>
    <trip id="240" depart="8.00" from="-572297853" to="438362016"/>
    <trip id="241" depart="8.00" from="195846184" to="27244725#2"/>
    <trip id="242" depart="8.00" from="-261719096" to="425431904"/>
    <trip id="243" depart="8.00" from="-11621549" to="195846217#3"/>
    <trip id="244" depart="8.00" from="60787965#0" to="11617759#1"/>
    <trip id="245" depart="8.00" from="-11620527" to="-11619314#0"/>
    <trip id="246" depart="8.00" from="11622482#0" to="268206344"/>
    <trip id="247" depart="8.00" from="-11619138" to="11620417"/>
    <trip id="248" depart="8.00" from="11623570" to="-60787555"/>
    <trip id="249" depart="8.00" from="-11617515" to="10819037#2"/>
    <trip id="250" depart="8.00" from="-11621548" to="11622416"/>
    <trip id="251" depart="8.00" from="-262807543#3" to="-11620838"/>
    <trip id="252" depart="8.00" from="11621689#0" to="-11624029"/>
    <trip id="253" depart="8.00" from="-479829297#2" to="49200101#2"/>
    <trip id="254" depart="8.00" from="11618499#0" to="429419775#5"/>
    <trip id="255" depart="8.00" from="-38312440#7" to="11618499#1"/>
    <trip id="256" depart="8.00" from="-11617072#3" to="-60787555"/>
    <trip id="257" depart="8.00" from="-11618827#1" to="11618345"/>
    <trip id="258" depart="8.00" from="-425408799" to="-11624119"/>
    <trip id="259" depart="8.00" from="-11619130" to="-60787555"/>
    <trip id="260" depart="8.00" from="-11618609" to="-420892235#0"/>
    <trip id="261" depart="8.00" from="-425442682#5" to="-27829495#0"/>
    <trip id="262" depart="8.00" from="-11618345" to="124369892"/>
    <trip id="263" depart="8.00" from="-268206344" to="346657923"/>
    <trip id="264" depart="8.00" from="-425195349#6" to="359399607"/>
    <trip id="265" depart="8.00" from="11616496#0" to="26968399"/>
    <trip id="266" depart="8.00" from="-11619130" to="-11618827#0"/>
    <trip id="267" depart="8.00" from="-11618345" to="-11622482#0"/>
    <trip id="268" depart="8.00" from="-11613734#7" to="195846217#3"/>
    <trip id="269" depart="8.00" from="-11621096" to="11617287#2"/>
    <trip id="270" depart="9.00" from="11618202" to="11621549"/>
    <trip id="271" depart="9.00" from="-11620047#2" to="195846217#3"/>
    <trip id="272" depart="9.00" from="11622137" to="-268206256#0"/>
    <trip id="273" depart="9.00" from="-359399607" to="-11617851"/>
    <trip id="274" depart="9.00" from="60254480" to="11624750#12"/>
    <trip id="275" depart="9.00" from="-11620417" to="11624798#1"/>
    <trip id="276" depart="9.00" from="-11618609" to="61671773"/>
    <trip id="277" depart="9.00" from="-359399607" to="11621096"/>
    <trip id="278" depart="9.00" from="-49200096#2" to="11617566#1"/>
    <trip id="279" depart="9.00" from="-351451186" to="11623413"/>
    <trip id="280" depart="9.00" from="-11617759#1" to="11624234"/>
    <trip id="281" depart="9.00" from="11620163" to="-11616570#0"/>
    <trip id="282" depart="9.00" from="-11620417" to="359399607"/>
    <trip id="283" depart="9.00" from="-11624710" to="-11618696"/>
    <trip id="284" depart="9.00" from="60787555" to="346657923"/>
    <trip id="285" depart="9.00" from="-11622198#1" to="-11619506#0"/>
    <trip id="286" depart="9.00" from="-572297853" to="11624710"/>
    <trip id="287" depart="9.00" from="11620279#0" to="-46965482#0"/>
    <trip id="288" depart="9.00" from="-11619396" to="11621504"/>
    <trip id="289" depart="9.00" from="60787555" to="-424851734#0"/>
    <trip id="290" depart="9.00" from="27827487#0" to="-415459430#0"/>
    <trip id="291" depart="9.00" from="24279066#0" to="-11618051#0"/>
    <trip id="292" depart="9.00" from="261719103" to="11614336"/>
    <trip id="293" depart="9.00" from="27827487#0" to="-27827487#0"/>
    <trip id="294" depart="9.00" from="11616519#0" to="11616750#1"/>
    <trip id="295" depart="9.00" from="-11622307#3" to="-11624390#0"/>
    <trip id="296" depart="9.00" from="-11616587#2" to="38312432#1"/>
    <trip id="297" depart="9.00" from="-38312440#7" to="11619138"/>
    <trip id="298" depart="9.00" from="27829503#0" to="11621458"/>
    <trip id="299" depart="9.00" from="-11625069#2" to="-11618827#0"/>
    <trip id="300" depart="10.00" from="60787565#0" to="11616587#2"/>
    <trip id="301" depart="10.00" from="11618202" to="-11619506#0"/>
    <trip id="302" depart="10.00" from="-11624750#12" to="-60787958"/>
    <trip id="303" depart="10.00" from="11618999#0" to="11620217#1"/>
    <trip id="304" depart="10.00" from="61671799" to="11622067#2"/>
    <trip id="305" depart="10.00" from="-54672534" to="224940712#2"/>
    <trip id="306" depart="10.00" from="-479829297#2" to="-27827487#0"/>
    <trip id="307" depart="10.00" from="11623782" to="150715641#2"/>
    <trip id="308" depart="10.00" from="11620217#0" to="11619457#2"/>
    <trip id="309" depart="10.00" from="-11622198#1" to="-423502953"/>
    <trip id="310" depart="10.00" from="11618499#0" to="11617566#1"/>
    <trip id="311" depart="10.00" from="-351451186" to="11617515"/>
    <trip id="312" depart="10.00" from="11624233#0" to="195846213#1"/>
    <trip id="313" depart="10.00" from="-424473202" to="11619717"/>
    <trip id="314" depart="10.00" from="27829507#0" to="-11616570#0"/>
    <trip id="315" depart="10.00" from="11618221" to="11620058"/>
    <trip id="316" depart="10.00" from="60787965#0" to="11619717"/>
    <trip id="317" depart="10.00" from="-54672534" to="11617336"/>
    <trip id="318" depart="10.00" from="-11619396" to="11620058"/>
    <trip id="319" depart="10.00" from="-358952990" to="11617072#3"/>
    <trip id="320" depart="10.00" from="-425442685" to="224940728#3"/>
    <trip id="321" depart="10.00" from="420818157" to="421351654#4"/>
    <trip id="322" depart="10.00" from="132500850#0" to="11620527"/>
    <trip id="323" depart="10.00" from="-46965482#2" to="-11616519#0"/>
    <trip id="324" depart="10.00" from="-11624710" to="-11622682#0"/>
    <trip id="325" depart="10.00" from="-11622028" to="60785882#4"/>
    <trip id="326" depart="10.00" from="-11621548" to="11619130"/>
    <trip id="327" depart="10.00" from="-11622067#2" to="-11618696"/>
    <trip id="328" depart="10.00" from="261719103" to="-11615252#0"/>
    <trip id="329" depart="10.00" from="421351654#0" to="26968334#2"/>
    <trip id="330" depart="11.00" from="-195846217#3" to="-11623830"/>
    <trip id="331" depart="11.00" from="-195846217#3" to="353008483"/>
    <trip id="332" depart="11.00" from="-11620088#12" to="11621504"/>
    <trip id="333" depart="11.00" from="11618499#0" to="234472440"/>
    <trip id="334" depart="11.00" from="422873497#0" to="-261713325"/>
    <trip id="335" depart="11.00" from="261719103" to="60787558#4"/>
    <trip id="336" depart="11.00" from="11620163" to="423261719#2"/>
    <trip id="337" depart="11.00" from="-11617759#1" to="11616750#1"/>
    <trip id="338" depart="11.00" from="-268206344" to="11620937#1"/>
    <trip id="339" depart="11.00" from="420818157" to="-11624781"/>
    <trip id="340" depart="11.00" from="-11620937#1" to="-11623830"/>
    <trip id="341" depart="11.00" from="-425408799" to="122603819"/>
    <trip id="342" depart="11.00" from="437886399" to="-11616519#0"/>
    <trip id="343" depart="11.00" from="11616570#0" to="-11618330#0"/>
    <trip id="344" depart="11.00" from="424851734#0" to="11620088#12"/>
    <trip id="345" depart="11.00" from="-11618999#2" to="11621844"/>
    <trip id="346" depart="11.00" from="-27239078#6" to="262807543#3"/>
    <trip id="347" depart="11.00" from="11624029" to="-11619314#0"/>
    <trip id="348" depart="11.00" from="-195846217#3" to="-423502953"/>
    <trip id="349" depart="11.00" from="-11618827#1" to="479829297#2"/>
    <trip id="350" depart="11.00" from="-11613734#7" to="421351654#4"/>
    <trip id="351" depart="11.00" from="-425195349#6" to="54672534"/>
    <trip id="352" depart="11.00" from="-425195349#6" to="11620088#12"/>
    <trip id="353" depart="11.00" from="-11622315" to="-261713325"/>
    <trip id="354" depart="11.00" from="-11621844" to="-261713315"/>
    <trip id="355" depart="11.00" from="261713315" to="-11619005"/>
    <trip id="356" depart="11.00" from="420818199#0" to="11618827#1"/>
    <trip id="357" depart="11.00" from="-27245204" to="-11615252#0"/>
    <trip id="358" depart="11.00" from="-421351654#4" to="421351654#4"/>
    <trip id="359" depart="11.00" from="-11619881#3" to="38312432#1"/>
    <trip id="360" depart="12.00" from="27829495#0" to="-11624119"/>
    <trip id="361" depart="12.00" from="124369888" to="60787558#4"/>
    <trip id="362" depart="12.00" from="420818157" to="-422873497#0"/>
    <trip id="363" depart="12.00" from="-11618154" to="11620527"/>
    <trip id="364" depart="12.00" from="11622482#0" to="268206344"/>
    <trip id="365" depart="12.00" from="46965482#0" to="11620525#2"/>
    <trip id="366" depart="12.00" from="-11620058" to="11624234"/>
    <trip id="367" depart="12.00" from="-11618715" to="-11623830"/>
    <trip id="368" depart="12.00" from="422873497#0" to="-11618696"/>
    <trip id="369" depart="12.00" from="-424473202" to="11614340"/>
    <trip id="370" depart="12.00" from="-11620527" to="-261719101"/>
    <trip id="371" depart="12.00" from="124369888" to="-11619506#0"/>
    <trip id="372" depart="12.00" from="262807636#0" to="-27829503#0"/>
    <trip id="373" depart="12.00" from="-425442682#5" to="11622416"/>
    <trip id="374" depart="12.00" from="-11620047#2" to="479829297#2"/>
    <trip id="375" depart="12.00" from="27829507#0" to="-421305945#0"/>
    <trip id="376" depart="12.00" from="11624382#0" to="11617072#3"/>
    <trip id="377" depart="12.00" from="-49200101#2" to="-11624119"/>
    <trip id="378" depart="12.00" from="-11620937#1" to="24279066#2"/>
    <trip id="379" depart="12.00" from="61671783" to="38312432#1"/>
    <trip id="380" depart="12.00" from="-11616496#1" to="11618345"/>
    <trip id="381" depart="12.00" from="-11620058" to="-11623782"/>
    <trip id="382" depart="12.00" from="-425442685" to="11621372"/>
    <trip id="383" depart="12.00" from="-46965482#2" to="27244728#4"/>
    <trip id="384" depart="12.00" from="-11617072#3" to="11619460"/>
    <trip id="385" depart="12.00" from="-11621970" to="224940728#3"/>
    <trip id="386" depart="12.00" from="-358952990" to="11618230"/>
    <trip id="387" depart="12.00" from="-11617597#2" to="38312432#1"/>
    <trip id="388" depart="12.00" from="-353008483" to="195846213#1"/>
    <trip id="389" depart="12.00" from="60787958" to="11624710"/>
    <trip id="390" depart="13.00" from="11621455#0" to="11623377#1"/>
    <trip id="391" depart="13.00" from="268206317#0" to="234472440"/>
    <trip id="392" depart="13.00" from="-224940628#2" to="224940628#2"/>
    <trip id="393" depart="13.00" from="27829495#0" to="11621549"/>
    <trip id="394" depart="13.00" from="-195846217#3" to="61671789#2"/>
    <trip id="395" depart="13.00" from="-11618345" to="-11620163"/>
    <trip id="396" depart="13.00" from="-11620217#1" to="49200096#2"/>
    <trip id="397" depart="13.00" from="11624233#0" to="11620088#12"/>
    <trip id="398" depart="13.00" from="-11616731#1" to="-422873497#0"/>
    <trip id="399" depart="13.00" from="-268206344" to="11618499#1"/>
    <trip id="400" depart="13.00" from="-11624798#1" to="11622067#2"/>
    <trip id="401" depart="13.00" from="61671783" to="-11618499#0"/>
    <trip id="402" depart="13.00" from="-11618230" to="11617746"/>
    <trip id="403" depart="13.00" from="-11622697#1" to="11617759#1"/>
    <trip id="404" depart="13.00" from="61671749" to="-11622137"/>
    <trip id="405" depart="13.00" from="-11621844" to="-60787965#0"/>
    <trip id="406" depart="13.00" from="-268206344" to="-11624233#0"/>
    <trip id="407" depart="13.00" from="-11620299" to="-11618051#0"/>
    <trip id="408" depart="13.00" from="11615252#0" to="11624798#1"/>
    <trip id="409" depart="13.00" from="-423261719#2" to="11621504"/>
    <trip id="410" depart="13.00" from="27827487#0" to="150715641#2"/>
    <trip id="411" depart="13.00" from="-11624798#1" to="11617566#1"/>
    <trip id="412" depart="13.00" from="-11621504" to="11617336"/>
    <trip id="413" depart="13.00" from="195846184" to="-11623830"/>
    <trip id="414" depart="13.00" from="56393021#0" to="422709491"/>
    <trip id="415" depart="13.00" from="11618827#0" to="-11624390#0"/>
    <trip id="416" depart="13.00" from="11623782" to="-11624390#0"/>
    <trip id="417" depart="13.00" from="-424473202" to="-11620850#0"/>
    <trip id="418" depart="13.00" from="11624029" to="-262807636#0"/>
    <trip id="419" depart="13.00" from="-11620525#2" to="-60785883#0"/>
    <trip id="420" depart="14.00" from="-438362016" to="261719105"/>
    <trip id="421" depart="14.00" from="-11616431" to="-11617851"/>
    <trip id="422" depart="14.00" from="-11618715" to="-11624781"/>
    <trip id="423" depart="14.00" from="-49200101#2" to="11621970"/>
    <trip id="424" depart="14.00" from="-11623087" to="27244725#2"/>
    <trip id="425" depart="14.00" from="-11623377#1" to="-27829503#0"/>
    <trip id="426" depart="14.00" from="-11617336" to="11617515"/>
    <trip id="427" depart="14.00" from="-11622067#2" to="11619460"/>
    <trip id="428" depart="14.00" from="-423229769#4" to="10819037#2"/>
    <trip id="429" depart="14.00" from="-425442685" to="262807543#3"/>