<?xml version="1.0" encoding="UTF-8"?>

<!-- generated on Sun Aug 12 01:40:07 2018 by Eclipse SUMO polyconvert Version UNKNOWN
<configuration xmlns:xsi="http://www.w3.org/2001/XMLSchema-instance" xsi:noNamespaceSchemaLocation="http://sumo.dlr.de/xsd/polyconvertConfiguration.xsd">

    <input>
        <net-file value="luton.net.xml"/>
        <osm-files value="luton.osm"/>
        <type-file value="typemap.xml"/>
    </input>

    <output>
        <output-file value="luton.poly.xml"/>
    </output>

    <processing>
        <poi-layer-offset value="5"/>
    </processing>

</configuration>
-->

<additional xmlns:xsi="http://www.w3.org/2001/XMLSchema-instance" xsi:noNamespaceSchemaLocation="http://sumo.dlr.de/xsd/additional_file.xsd">
    <location netOffset="-671611.46,-5748004.35" convBoundary="-17.51,-7.39,10793.65,8097.70" origBoundary="-0.505808,51.854493,-0.349923,51.927716" projParameter="+proj=utm +zone=30 +ellps=WGS84 +datum=WGS84 +units=m +no_defs"/>

    <poly id="100651635" type="landuse" color="194,194,130" fill="1" layer="-3.00" shape="7169.927500,2832.461224 7182.217567,2814.195577 7278.891508,2864.964465 7322.983604,2781.445741 7389.730889,2714.980622 7476.493403,2636.495009 7282.916942,2521.650347 7182.739824,2636.423272 7066.310220,2762.842807 7169.927500,2832.461224"/>
    <poly id="101809015" type="amenity" color="237,199,199" fill="1" layer="-1.00" shape="1352.319288,5163.843553 1197.944035,5109.137496 1223.562956,5041.109934 1275.339106,4975.466475 1289.411241,4985.170483 1302.492173,4970.136575 1411.969042,5009.299560 1352.319288,5163.843553"/>
    <poly id="101853519" type="amenity" color="237,199,199" fill="1" layer="-1.00" shape="4779.438423,1831.699561 4761.733754,1809.578192 4725.287489,1764.041133 4607.700381,1846.576280 4670.423446,1924.655029 4700.412251,1899.079599 4709.807288,1890.603845 4720.839276,1901.412707 4724.658157,1893.943137 4731.727943,1886.331914 4788.346246,1838.637382 4784.761204,1835.349354 4779.438423,1831.699561"/>
    <poly id="105079524" type="building" color="255,230,230" fill="1" layer="-1.00" shape="6317.769936,3121.014439 6315.503715,3112.851085 6354.845931,3101.990894 6354.106521,3099.337138 6353.147430,3095.885106 6380.368515,3088.368682 6408.814255,3080.517391 6412.674838,3094.415502 6394.429896,3099.456252 6398.547508,3114.265293 6382.327650,3118.743448 6378.321217,3104.294643 6317.769936,3121.014439"/>
    <poly id="109329454" type="building" color="255,230,230" fill="1" layer="-1.00" shape="7413.259729,2207.308617 7450.413257,2246.980167 7488.503262,2207.036203 7477.311759,2196.426714 7488.259049,2184.949678 7498.570667,2194.726123 7540.549035,2150.713037 7528.924830,2139.676022 7553.854601,2113.379306 7528.960390,2087.216071 7413.259729,2207.308617"/>
    <poly id="109329457" type="building" color="255,230,230" fill="1" layer="-1.00" shape="6003.344610,2110.168926 6011.256404,2117.931003 6048.258841,2081.511979 6087.743131,2066.457052 6086.180564,2061.937162 6116.893699,2050.145198 6114.347240,2044.220996 6043.246419,2069.722173 6003.344610,2110.168926"/>
    <poly id="109329458" type="building" color="255,230,230" fill="1" layer="-1.00" shape="6094.434729,2149.036659 6113.493116,2151.260183 6118.895418,2105.036847 6099.836855,2102.813305 6094.434729,2149.036659"/>
    <poly id="109329459" type="amenity" color="237,199,199" fill="1" layer="-1.00" shape="7205.902818,2154.623878 7214.867677,2161.601666 7220.830591,2160.779077 7226.069100,2159.785903 7234.206502,2164.073286 7246.636802,2145.979722 7223.025737,2129.783834 7205.902818,2154.623878"/>
    <poly id="109329459#1" type="building" color="255,230,230" fill="1" layer="-1.00" shape="7205.902818,2154.623878 7214.867677,2161.601666 7220.830591,2160.779077 7226.069100,2159.785903 7234.206502,2164.073286 7246.636802,2145.979722 7223.025737,2129.783834 7205.902818,2154.623878"/>
    <poly id="109329460" type="building" color="255,230,230" fill="1" layer="-1.00" shape="7062.800270,1960.238491 7070.601753,1966.228158 7078.073237,1956.541270 7070.271745,1950.551592 7062.800270,1960.238491"/>
    <poly id="109329461" type="building" color="255,230,230" fill="1" layer="-1.00" shape="7442.365066,1964.624684 7472.223541,1975.522645 7504.964753,1886.299809 7475.105789,1875.401664 7442.365066,1964.624684"/>
    <poly id="109329461#1" type="leisure" color="207,245,201" fill="1" layer="-2.00" shape="7442.365066,1964.624684 7472.223541,1975.522645 7504.964753,1886.299809 7475.105789,1875.401664 7442.365066,1964.624684"/>
    <poly id="109329461#2" type="sport" color="79,230,125" fill="1" layer="-2.00" shape="7442.365066,1964.624684 7472.223541,1975.522645 7504.964753,1886.299809 7475.105789,1875.401664 7442.365066,1964.624684"/>
    <poly id="109329462" type="building" color="255,230,230" fill="1" layer="-1.00" shape="7102.728618,2025.613137 7124.404890,2038.499544 7165.375531,1969.931565 7143.692159,1957.044740 7102.728618,2025.613137"/>
    <poly id="109329464" type="building" color="255,230,230" fill="1" layer="-1.00" shape="6088.839387,2215.282069 6094.166764,2226.927242 6104.792215,2222.093708 6103.132203,2215.466146 6106.283849,2186.063406 6099.648024,2185.661036 6095.936511,2211.614847 6088.839387,2215.282069"/>
    <poly id="109329465" type="building" color="255,230,230" fill="1" layer="-1.00" shape="7544.015607,2087.876830 7581.054937,2121.878289 7602.140299,2099.029307 7625.799804,2073.388896 7603.106764,2052.547925 7611.738955,2043.192765 7597.392951,2030.020806 7566.018903,2064.025101 7544.015607,2087.876830"/>
    <poly id="109329466" type="building" color="255,230,230" fill="1" layer="-1.00" shape="7445.098946,2032.570067 7450.226678,2038.732014 7457.541753,2032.669593 7452.413625,2026.518758 7445.098946,2032.570067"/>
    <poly id="109329467" type="building" color="255,230,230" fill="1" layer="-1.00" shape="7054.797597,1971.487412 7062.906536,1977.165160 7069.411091,1967.922521 7061.302143,1962.244763 7054.797597,1971.487412"/>
    <poly id="109329468" type="building" color="255,230,230" fill="1" layer="-1.00" shape="6091.790466,2078.446480 6094.263370,2084.501662 6102.821974,2081.019874 6100.348684,2074.975807 6091.790466,2078.446480"/>
    <poly id="109329469" type="water" color="181,209,209" fill="1" layer="-4.00" shape="6714.780537,1042.983256 6713.196686,1041.390495 6712.192769,1039.384164 6711.878697,1037.168575 6712.274492,1034.955975 6713.343915,1032.990009 6714.976977,1031.456033 6717.016686,1030.504329 6719.245279,1030.249618 6721.441669,1030.706300 6723.394025,1031.822306 6724.976848,1033.637702 6725.855422,1035.873377 6725.928302,1038.280787 6725.185125,1040.570094 6723.717996,1042.477373 6721.686679,1043.774508 6719.337657,1044.314402 6716.941790,1044.039891 6714.780537,1042.983256"/>
    <poly id="109329470" type="building" color="255,230,230" fill="1" layer="-1.00" shape="7045.851059,1982.535689 7054.228962,1988.401149 7060.864518,1978.962769 7052.493092,1973.108663 7045.851059,1982.535689"/>
    <poly id="109329471" type="building" color="255,230,230" fill="1" layer="-1.00" shape="7135.125794,1884.594185 7131.464772,1890.431136 7141.530170,1896.713205 7145.198083,1890.876506 7135.125794,1884.594185"/>
    <poly id="109329473" type="building" color="255,230,230" fill="1" layer="-1.00" shape="7231.707756,1801.956224 7236.276209,1795.995855 7232.103197,1792.807474 7227.534747,1798.767846 7231.707756,1801.956224"/>
    <poly id="109329474" type="parking" color="184,184,179" fill="1" layer="-1.00" shape="7355.970158,2164.702524 7379.417792,2185.457975 7382.962815,2182.099828 7407.335911,2206.072671 7524.235259,2079.242528 7536.432339,2090.645145 7600.508921,2025.177825 7617.389213,2007.767525 7614.432250,1999.879409 7606.417627,1991.966264 7605.065100,1982.766115 7626.520430,1959.418291 7614.329541,1943.406400 7524.113586,2010.165733 7355.970158,2164.702524"/>
    <poly id="109329476" type="building" color="255,230,230" fill="1" layer="-1.00" shape="6111.165732,2080.681219 6114.125761,2094.179639 6122.494822,2092.350031 6124.191380,2078.326516 6111.165732,2080.681219"/>
    <poly id="109329477" type="building" color="255,230,230" fill="1" layer="-1.00" shape="7546.917254,2019.253257 7555.299990,2027.858613 7581.399926,2002.583593 7573.017584,1993.967074 7546.917254,2019.253257"/>
    <poly id="109329478" type="building" color="255,230,230" fill="1" layer="-1.00" shape="7070.503013,1948.511279 7076.539316,1952.400583 7082.738410,1942.835328 7076.702496,1938.934898 7070.503013,1948.511279"/>
    <poly id="109329479" type="building" color="255,230,230" fill="1" layer="-1.00" shape="6080.046963,2089.731150 6038.498150,2108.208797 6018.239646,2125.058974 6023.430605,2132.201347 6029.489223,2129.254277 6033.715481,2142.418999 6042.482947,2141.594258 6039.119254,2125.676773 6050.923518,2121.419314 6055.531121,2138.015518 6067.901548,2135.670845 6061.980876,2113.350057 6068.224624,2112.179799 6078.981649,2159.800088 6055.322861,2168.958846 6063.249750,2177.456351 6087.128724,2168.695109 6091.401543,2180.347406 6110.256425,2177.230830 6107.229628,2155.513623 6094.270977,2156.568132 6080.046963,2089.731150"/>
    <poly id="109329480" type="building" color="255,230,230" fill="1" layer="-1.00" shape="7191.833475,1859.440538 7195.461202,1861.685350 7204.741071,1846.719085 7201.106056,1844.485140 7191.833475,1859.440538"/>
    <poly id="109329481" type="building" color="255,230,230" fill="1" layer="-1.00" shape="7017.412470,2048.166727 7022.690634,2051.861942 7029.057118,2042.814739 7023.772065,2039.119273 7017.412470,2048.166727"/>
    <poly id="109329482" type="building" color="255,230,230" fill="1" layer="-1.00" shape="7077.272986,1936.272075 7083.934634,1940.985298 7091.603746,1930.203260 7084.942089,1925.490028 7077.272986,1936.272075"/>
    <poly id="109329483" type="building" color="255,230,230" fill="1" layer="-1.00" shape="6077.524820,2177.172119 6068.962020,2181.165926 6081.288134,2207.465840 6089.850902,2203.472055 6077.524820,2177.172119"/>
    <poly id="109329484" type="building" color="255,230,230" fill="1" layer="-1.00" shape="7252.437640,1960.502293 7263.462541,1967.698421 7280.422428,1941.850694 7269.397489,1934.654530 7252.437640,1960.502293"/>
    <poly id="109329486" type="leisure" color="207,245,201" fill="1" layer="-2.00" shape="7170.576900,1904.117838 7229.859654,1941.983004 7290.554633,1847.421813 7231.271113,1809.555948 7170.576900,1904.117838"/>
    <poly id="109329486#1" type="sport" color="79,230,125" fill="1" layer="-2.00" shape="7170.576900,1904.117838 7229.859654,1941.983004 7290.554633,1847.421813 7231.271113,1809.555948 7170.576900,1904.117838"/>
    <poly id="109329489" type="building" color="255,230,230" fill="1" layer="-1.00" shape="7085.037656,1922.810268 7092.618779,1928.602840 7098.761617,1920.616549 7091.180884,1914.812849 7085.037656,1922.810268"/>
    <poly id="109329490" type="building" color="255,230,230" fill="1" layer="-1.00" shape="6809.219549,993.638529 6793.977985,1004.708158 6811.828226,1029.180202 6792.143540,1043.465094 6818.899345,1080.133530 6838.937690,1065.594136 6854.211227,1086.534390 6869.105478,1075.730917 6809.219549,993.638529"/>
    <poly id="109329491" type="building" color="255,230,230" fill="1" layer="-1.00" shape="7165.657350,1861.200866 7172.978615,1865.971140 7189.931430,1840.122868 7182.610536,1835.341451 7165.657350,1861.200866"/>
    <poly id="109329499" type="landuse" color="194,194,130" fill="1" layer="-3.00" shape="7145.644626,1910.042026 7270.259761,1676.120990 7275.818948,1672.723318 7324.446490,1707.949012 7361.855353,1729.024643 7445.112138,1761.224370 7480.202620,1776.372996 7409.691032,1911.196481 7364.825134,1963.101412 7290.314008,1979.245012 7272.834334,1988.574297 7145.644626,1910.042026"/>
    <poly id="109329502" type="building" color="255,230,230" fill="1" layer="-1.00" shape="7240.394025,1931.837850 7234.892943,1940.180891 7253.660698,1952.496433 7259.161801,1944.153412 7240.394025,1931.837850"/>
    <poly id="109329503" type="building" color="255,230,230" fill="1" layer="-1.00" shape="7143.290587,2115.114773 7155.293969,2123.080395 7174.884610,2094.164317 7204.307706,2110.879115 7211.603083,2100.529259 7173.090228,2077.433454 7167.077893,2079.445625 7143.290587,2115.114773"/>
    <poly id="109329503#1" type="tourism" color="207,245,201" fill="1" layer="-2.00" shape="7143.290587,2115.114773 7155.293969,2123.080395 7174.884610,2094.164317 7204.307706,2110.879115 7211.603083,2100.529259 7173.090228,2077.433454 7167.077893,2079.445625 7143.290587,2115.114773"/>
    <poly id="109329506" type="building" color="255,230,230" fill="1" layer="-1.00" shape="7113.878498,1921.879393 7123.272346,1927.859138 7128.563583,1919.597568 7119.169724,1913.617814 7113.878498,1921.879393"/>
    <poly id="109329509" type="building" color="255,230,230" fill="1" layer="-1.00" shape="8541.146708,2597.801428 8583.201813,2555.870312 8561.399048,2534.199365 8546.258281,2549.364482 8558.392678,2562.226048 8537.890616,2583.143757 8534.791801,2579.825827 8539.036125,2574.667688 8524.476705,2558.913287 8513.432329,2569.972726 8541.146708,2597.801428"/>
    <poly id="109329509#1" type="tourism" color="207,245,201" fill="1" layer="-2.00" shape="8541.146708,2597.801428 8583.201813,2555.870312 8561.399048,2534.199365 8546.258281,2549.364482 8558.392678,2562.226048 8537.890616,2583.143757 8534.791801,2579.825827 8539.036125,2574.667688 8524.476705,2558.913287 8513.432329,2569.972726 8541.146708,2597.801428"/>
    <poly id="109329510" type="building" color="255,230,230" fill="1" layer="-1.00" shape="7367.074582,2178.915872 7339.746060,2207.966814 7366.773502,2233.258949 7373.227759,2226.397462 7408.263464,2259.190452 7429.137413,2237.012408 7367.074582,2178.915872"/>
    <poly id="109329511" type="building" color="255,230,230" fill="1" layer="-1.00" shape="7028.783858,2008.146503 7034.398276,2012.076385 7049.860918,1990.104689 7044.246485,1986.174790 7028.783858,2008.146503"/>
    <poly id="109329512" type="building" color="255,230,230" fill="1" layer="-1.00" shape="7566.433529,1804.383577 7538.884794,1825.242578 7562.167811,1855.834980 7589.716494,1834.976108 7566.433529,1804.383577"/>
    <poly id="110273420" type="building" color="255,230,230" fill="1" layer="-1.00" shape="8465.936321,2779.192585 8475.185166,2791.037286 8462.149435,2798.852122 8442.537202,2835.500611 8478.961300,2883.805202 8500.345534,2867.060771 8550.861138,2830.655416 8495.709515,2760.845827 8465.936321,2779.192585"/>
    <poly id="110273427" type="landuse" color="194,194,130" fill="0" layer="-3.00" shape="9163.060771,1771.078171 9124.398700,1807.671879 9138.982776,1843.970612 9061.091195,1871.400778 8911.087298,1933.887844 9160.944502,2053.064023 9284.539530,2028.354163 9451.277870,2060.151297 9545.709463,2190.757048 9555.431410,2193.869749"/>
    <poly id="110273441" type="building" color="255,230,230" fill="1" layer="-1.00" shape="7963.115622,2539.550452 7899.318615,2246.432448 7900.658380,2227.119144 7882.295451,2213.190027 7814.511371,2207.210524 7811.505950,2248.798134 7867.507608,2504.783274 7877.611847,2501.460053 7881.118225,2517.072501 7934.413531,2504.965056 7943.351451,2544.375449 7963.115622,2539.550452"/>
    <poly id="110273446" type="parking" color="184,184,179" fill="1" layer="-1.00" shape="8222.363014,2667.434171 8212.241872,2558.540185 8186.080427,2451.096906 8154.260185,2305.039815 8151.723054,2281.445712 8193.852340,2278.893687 8197.946168,2311.528527 8222.415304,2348.835994 8228.172742,2371.209715 8234.488022,2404.725971 8244.590583,2438.511806 8286.523770,2483.416302 8268.908807,2498.994383 8257.629084,2524.875914 8255.935046,2547.683586 8266.508366,2665.645598 8258.018693,2686.182946 8248.533637,2857.656763 8250.704524,2920.784544 8258.342209,2985.945691 8271.368718,3014.436872 8282.529345,3032.907600 8331.549178,3150.057599 8353.069888,3147.880362 8361.173070,3241.260095 8342.397161,3241.843574 8325.678229,3232.926069 8276.047382,3205.524782 8262.227434,3221.784608 8230.347862,3204.674188 8215.194408,3194.365906 8212.413420,3184.312582 8213.168154,3173.462105 8217.101364,3166.967663 8206.253922,3160.120708 8196.635547,3165.676246 8189.105578,3164.303706 8185.675518,3161.964983 8179.006463,3146.973517 8174.292721,3123.768817 8173.136380,3109.721193 8176.818336,3032.096011 8183.256258,3032.416161 8187.105662,3024.994592 8179.108432,3004.767191 8192.963128,2897.323866 8202.580790,2800.427902 8222.363014,2667.434171"/>
    <poly id="110273459" type="building" color="255,230,230" fill="1" layer="-1.00" shape="8625.954675,3031.970720 8691.630102,3127.612518 8695.187996,3125.246642 8739.710530,3095.664013 8750.292499,3088.629986 8678.368316,2995.846515 8625.954675,3031.970720"/>
    <poly id="110273479" type="aeroway" color="grey" fill="1" layer="-2.00" shape="8630.398649,2764.643623 8583.037038,2699.154877 8643.370014,2655.788635 8690.134353,2722.547979 8630.398649,2764.643623"/>
    <poly id="110273479#1" type="building" color="255,230,230" fill="1" layer="-1.00" shape="8630.398649,2764.643623 8583.037038,2699.154877 8643.370014,2655.788635 8690.134353,2722.547979 8630.398649,2764.643623"/>
    <poly id="110273489" type="building" color="255,230,230" fill="1" layer="-1.00" shape="8046.648474,2735.746961 8041.664770,2730.413365 7932.718153,2253.062410 8077.253360,2222.482813 8139.602252,2504.217660 8122.067383,2508.743415 8166.629873,2709.088742 8149.519966,2712.159975 8154.154485,2737.399215 8083.432634,2751.083538 8077.962000,2728.397391 8046.648474,2735.746961"/>
    <poly id="110273494" type="leisure" color="207,245,201" fill="1" layer="-2.00" shape="7406.463920,2010.781834 7438.399743,1986.104287 7462.390081,2018.302481 7430.460550,2042.612690 7406.463920,2010.781834"/>
    <poly id="110273494#1" type="sport" color="79,230,125" fill="1" layer="-2.00" shape="7406.463920,2010.781834 7438.399743,1986.104287 7462.390081,2018.302481 7430.460550,2042.612690 7406.463920,2010.781834"/>
    <poly id="110273496" type="building" color="255,230,230" fill="1" layer="-1.00" shape="8517.455016,2893.506120 8506.038062,2902.681683 8489.888318,2878.865027 8502.360080,2871.208132 8500.345534,2867.060771 8550.861138,2830.655416 8585.138180,2875.599176 8531.893044,2913.564935 8517.455016,2893.506120"/>
    <poly id="110273499" type="aeroway" color="grey" fill="1" layer="-2.00" shape="9165.592204,3636.864609 9105.790966,3650.193374 9007.724751,3597.433210 9000.268859,3588.869667 8919.367287,3546.884386 8952.104218,3525.574394 8960.634984,3514.458737 8955.368883,3481.079164 8959.124992,3461.173839 8971.212477,3364.601300 8965.766593,3336.203167 8923.887941,3277.922504 8908.669973,3253.959745 8955.419742,3218.224391 8944.374586,3186.306598 8929.208809,3168.536031 8866.172483,3124.468276 8808.229812,3169.276080 8750.292499,3088.629986 8678.368316,2995.846515 8592.052822,2884.509929 8585.138180,2875.599176 8550.861138,2830.655416 8492.120663,2755.060890 8515.094399,2733.029474 8574.643593,2690.925787 8664.873308,2626.011554 8685.008653,2613.954697 8710.981849,2600.337786 8741.534233,2596.772579 8749.397068,2593.515135 8782.078054,2592.843634 8884.063261,2598.086885 8928.582751,2583.469242 8954.597759,2589.940298 8990.678256,2573.538244 8885.947496,2566.445937 8842.734592,2562.773795 8826.516023,2563.069184 8783.413991,2559.379282 8742.870040,2543.779715 8709.241984,2513.510260 8689.088441,2479.339295 8671.040623,2467.266641 8654.970778,2461.889772 8629.230580,2456.565853 8614.496815,2446.037757 8583.400580,2406.073808 8490.068266,2277.341612 8378.134078,2192.633646 8324.183137,2146.105606 8208.303065,2055.971607 8911.087298,1933.887844 9160.944502,2053.064023 9284.539530,2028.354163 9451.277870,2060.151297 9545.709463,2190.757048 9555.431410,2193.869749 9904.088104,2305.446360 9931.466706,2313.864617 10504.930705,2490.284567 10512.680401,2500.798364 10664.655938,2548.567627 10717.017400,2572.596181 10601.752722,2859.811249 10565.181597,2863.814271 10462.239214,2836.289486 10275.754805,2873.337909 10150.034027,2904.581158 10053.978618,2952.769014 10031.629790,2975.250615 10002.427635,3072.726543 9979.240174,3131.285081 9954.523552,3148.214396 9948.784146,3146.113593 9847.366099,3076.615069 9735.157534,2979.628336 9549.441420,3210.125335 9401.759605,3450.954394 9359.010992,3428.923349 9350.452259,3440.783341 9288.118270,3406.455028 9252.883107,3450.897813 9239.494611,3473.639412 9306.716422,3515.881708 9228.960533,3647.636387 9175.895279,3617.696749 9165.592204,3636.864609"/>
    <poly id="110273528" type="building" color="255,230,230" fill="1" layer="-1.00" shape="8583.697768,2973.679694 8625.954675,3031.970720 8678.368316,2995.846515 8592.052822,2884.509929 8531.350409,2928.653827 8571.935644,2982.107865 8583.697768,2973.679694"/>
    <poly id="110273531" type="building" color="255,230,230" fill="1" layer="-1.00" shape="7890.263113,2560.910229 7880.627866,2520.372742 7925.364298,2509.806741 7937.874586,2562.983804 7899.533841,2570.461027 7897.003725,2558.568759 7890.263113,2560.910229"/>
    <poly id="110310841" type="building" color="255,230,230" fill="1" layer="-1.00" shape="8016.935051,3131.394434 7883.273742,2981.543121 8080.706179,2797.891684 8069.866546,2785.612159 8091.012013,2766.463750 8096.744755,2771.467995 8105.965257,2761.845320 8111.014686,2765.344295 8121.243776,2758.340833 8125.556835,2761.813402 8150.170147,2755.682394 8156.978212,2761.827527 8155.062469,2773.927838 8143.957646,2784.596173 8156.379821,2799.048049 8150.682463,2854.890295 8139.206596,2865.534182 8150.924838,2878.858569 8068.148769,2955.293738 8142.556695,3040.040489 8120.010234,3060.619137 8122.471895,3064.025290 8111.726162,3075.073956 8132.362024,3097.558413 8086.175506,3138.298086 8067.045861,3115.121898 8048.359959,3131.051864 8035.222529,3116.196020 8016.935051,3131.394434"/>
    <poly id="110310842" type="building" color="255,230,230" fill="1" layer="-1.00" shape="7829.788847,2845.589521 7822.670584,2838.286976 7818.284414,2843.585324 7809.693446,2834.882883 7803.354566,2840.256038 7730.078983,2760.019951 7733.961153,2756.095181 7723.903907,2744.456816 7761.486490,2712.112178 7860.321274,2818.660080 7829.788847,2845.589521"/>
    <poly id="110310846" type="building" color="255,230,230" fill="1" layer="-1.00" shape="3210.301735,6378.949870 3212.050688,6365.940739 3213.337310,6366.163823 3214.228185,6356.431237 3207.425422,6355.648030 3210.385692,6334.375941 3225.437159,6336.928072 3222.259563,6359.294737 3229.797751,6360.114796 3226.453895,6381.918995 3210.301735,6378.949870"/>
    <poly id="110310848" type="leisure" color="207,245,201" fill="1" layer="-2.00" shape="3059.043082,7171.006744 3066.887577,7142.123127 3083.587783,7097.394673 3096.360296,7091.216552 3111.989377,7059.821600 3116.367565,7057.658840 3132.451973,7072.949748 3188.364388,7111.007824 3212.433166,7130.263078 3271.500058,7162.531855 3239.041828,7224.755690 3059.043082,7171.006744"/>
    <poly id="110310863" type="building" color="255,230,230" fill="1" layer="-1.00" shape="3190.628238,6429.474695 3194.144777,6408.043905 3210.040932,6410.258121 3206.354235,6433.798245 3213.252777,6434.595936 3210.200399,6455.942737 3194.310606,6453.550605 3197.331404,6430.543865 3190.628238,6429.474695"/>
    <poly id="110310866" type="building" color="255,230,230" fill="1" layer="-1.00" shape="3228.847056,6302.790724 3231.580143,6280.141335 3225.609500,6279.186791 3228.323148,6257.093377 3244.757112,6259.693861 3241.905808,6283.162962 3248.158127,6283.938107 3244.903570,6305.745419 3228.847056,6302.790724"/>
    <poly id="110310892" type="tourism" color="207,245,201" fill="1" layer="-2.00" shape="3524.608553,6831.392319 3454.488360,6766.681648 3442.948465,6748.219925 3387.228119,6693.967197 3472.760561,6603.385852 3479.842892,6612.106007 3491.861553,6637.943550 3539.405953,6619.724009 3535.773917,6607.439483 3577.264553,6593.417077 3581.093529,6610.495782 3569.743398,6628.891082 3584.529850,6638.983339 3590.824762,6649.145665 3579.251046,6663.113258 3574.815648,6695.010243 3575.733512,6710.873702 3612.058028,6728.355644 3601.514390,6744.563620 3529.798279,6825.528711 3524.608553,6831.392319"/>
    <poly id="110313451" type="building" color="255,230,230" fill="1" layer="-1.00" shape="8351.450580,2302.744389 8385.862659,2260.837678 8446.897956,2311.150461 8412.160433,2351.942841 8351.450580,2302.744389"/>
    <poly id="110313452" type="building" color="255,230,230" fill="1" layer="-1.00" shape="8015.484462,2140.607020 8059.504038,2109.007199 8078.492830,2136.230671 8034.472949,2167.841444 8015.484462,2140.607020"/>
    <poly id="110313453" type="building" color="255,230,230" fill="1" layer="-1.00" shape="8176.224253,2174.028123 8164.139584,2165.489229 8168.272794,2158.623352 8163.036919,2155.117667 8172.967590,2141.100489 8178.734544,2145.170788 8181.454528,2141.583162 8194.076184,2150.330637 8187.508238,2158.211352 8206.432294,2171.660746 8209.736533,2165.811710 8222.497624,2175.087548 8218.488153,2180.232113 8228.796776,2187.560633 8232.783513,2182.281656 8249.662924,2194.321798 8245.442069,2199.403086 8265.467827,2213.638223 8269.352943,2208.311091 8277.413027,2214.345426 8273.437841,2219.301908 8285.560703,2227.920390 8269.155092,2252.404310 8208.290699,2207.633382 8205.192279,2211.396683 8168.204021,2186.276795 8176.224253,2174.028123"/>
    <poly id="110313454" type="building" color="255,230,230" fill="1" layer="-1.00" shape="7848.015716,2171.480387 7796.144012,2009.588810 7826.844092,1998.886542 7895.255903,2029.360147 7895.018086,2035.998376 7911.472859,2030.687101 7940.878945,2118.026071 7924.364938,2124.804746 7931.063629,2144.227952 7848.015716,2171.480387"/>
    <poly id="110313455" type="building" color="255,230,230" fill="1" layer="-1.00" shape="8329.879981,2249.797384 8310.423806,2235.638093 8321.350118,2219.619489 8365.332223,2250.881488 8332.831702,2296.364085 8307.934686,2279.237108 8329.879981,2249.797384"/>
    <poly id="122499681" type="tourism" color="207,245,201" fill="1" layer="-2.00" shape="9274.531453,4279.032186 9307.466489,4303.257982 9326.910824,4281.793187 9345.809980,4267.412130 9391.784241,4304.245629 9412.768595,4280.209235 9417.206519,4283.787771 9440.438247,4303.911564 9469.235748,4326.897750 9510.639168,4277.335537 9474.768517,4239.630458 9494.184578,4221.260441 9508.496143,4211.267766 9472.571944,4170.075910 9450.204857,4180.512223 9420.822190,4203.599082 9388.494820,4172.847832 9396.080200,4164.827339 9375.988176,4148.157435 9339.057332,4178.053039 9354.303767,4195.939394 9337.508492,4210.808415 9344.351463,4218.370630 9343.519622,4220.801141 9331.910325,4232.851469 9327.696190,4234.324719 9321.222965,4229.303263 9274.531453,4279.032186"/>
    <poly id="122499688" type="tourism" color="207,245,201" fill="1" layer="-2.00" shape="9650.932265,4035.997990 9688.613393,4077.176816 9742.839719,4029.004694 9789.437584,3987.192532 9793.279982,3942.362038 9695.600774,3945.460220 9709.449353,3991.666133 9704.511968,4005.493744 9682.787490,4013.558578 9650.932265,4035.997990"/>
    <poly id="12834193" type="forest" color="140,196,107" fill="0" layer="-4.00" shape="8438.951400,6077.740003 8502.130461,5959.758043 8601.623679,5791.334603 8594.910959,5678.252313 8582.949974,5671.709218 8564.331563,5711.398732 8559.677102,5721.318341 8502.812987,5848.378374 8461.649104,5939.362714 8416.854317,6031.775419 8401.438888,6063.085605 8386.352989,6112.232789 8348.271735,6200.901594 8299.300130,6296.026289 8254.910936,6377.888828 8244.813515,6370.879030"/>
    <poly id="12834195" type="forest" color="140,196,107" fill="1" layer="-4.00" shape="9003.878308,4387.268595 8934.702081,4456.051994 8883.268605,4507.361234 8835.474471,4551.565172 8768.068427,4586.256085 8866.528203,4668.676042 8938.782139,4583.402439 8934.810627,4550.080582 8999.437743,4479.429672 9059.253506,4436.785481 9063.064479,4416.125097 9085.866761,4419.152481 9062.063639,4402.817511 9041.139197,4388.791018 9018.868280,4371.030762 8981.893653,4330.628575 8970.168265,4307.348041 8973.081117,4267.649875 8981.737735,4232.578977 8987.018753,4188.534991 8996.658168,4126.221825 8988.228648,4114.115992 8979.810471,4142.570894 8978.987554,4165.387703 8973.991669,4201.336594 8965.016268,4245.247351 8954.880193,4300.906919 8951.735795,4326.590460 8963.043890,4341.004555 8987.556878,4358.110585 8996.516764,4376.125344 9003.878308,4387.268595"/>
    <poly id="12834196" type="forest" color="140,196,107" fill="1" layer="-4.00" shape="10549.999802,2920.501764 10561.014404,2967.030258 10685.609989,2862.049471 10550.328031,2860.123198 10549.999802,2920.501764"/>
    <poly id="135808669" type="tourism" color="207,245,201" fill="1" layer="-2.00" shape="8816.614987,3696.949508 8879.108497,3739.628067 8975.597968,3597.432558 8912.923368,3563.185716 8877.292842,3601.136804 8889.711211,3610.034881 8872.552577,3638.419875 8859.067409,3629.683801 8816.614987,3696.949508"/>
    <poly id="136410111" type="building" color="255,230,230" fill="1" layer="-1.00" shape="8100.798268,5819.373985 8093.132176,5814.233278 8100.442767,5803.384374 8108.108471,5808.536211 8100.798268,5819.373985"/>
    <poly id="138087010" type="landuse" color="194,194,130" fill="1" layer="-3.00" shape="7489.442604,5195.931119 7531.844960,5177.541609 7585.924926,5226.784087 7603.046562,5242.371790 7641.623225,5196.958545 7655.760364,5194.147015 7689.180906,5158.491760 7702.929818,5135.759529 7696.249900,5126.312734 7702.441752,5118.429260 7683.676730,5095.645715 7694.164410,5081.280463 7636.824684,5031.686328 7686.294280,4971.031799 7703.382434,4950.078062 7635.245147,4879.789576 7646.144359,4864.325587 7603.986041,4834.447720 7563.127393,4890.445675 7536.378790,4927.108786 7452.416232,5028.426435 7420.046799,5049.357670 7470.740353,5160.981632 7489.442604,5195.931119"/>