<?xml version="1.0" encoding="UTF-8"?>
<!-- generated on 2018-08-12 03:06:25.257177 by $Id$
  options: -n luton.net.xml -e 1200 <doubleminus>fringe-factor 1 <doubleminus>period 0.28 <doubleminus>binomial 30 <doubleminus>min-distance 1000 <doubleminus>route-file routes_luton_testing_5.xml
-->
<routes xmlns:xsi="http://www.w3.org/2001/XMLSchema-instance" xsi:noNamespaceSchemaLocation="http://sumo.dlr.de/xsd/routes_file.xsd">
    <trip id="0" depart="0.00" from="408681560#1" to="70896343#0"/>
    <trip id="1" depart="0.00" from="-65411676#4" to="-66744623"/>
    <trip id="2" depart="0.00" from="-70906275#1" to="70690416"/>
    <trip id="3" depart="0.00" from="-26714489#2" to="34588153#3"/>
    <trip id="4" depart="0.00" from="-141814095#0" to="-26715966#0"/>
    <trip id="5" depart="0.00" from="487410641#10" to="65399977#0"/>
    <trip id="6" depart="1.00" from="-100652523#0" to="67988118#1"/>
    <trip id="7" depart="1.00" from="-55211166" to="-178089972#3"/>
    <trip id="8" depart="2.00" from="-29209869#7" to="70906419#5"/>
    <trip id="9" depart="2.00" from="139308558#0" to="142613038#0"/>
    <trip id="10" depart="3.00" from="70906270#0" to="-36922359#1"/>
    <trip id="11" depart="3.00" from="66739499#3" to="55199450"/>
    <trip id="12" depart="4.00" from="564373823" to="-66732277#3"/>
    <trip id="13" depart="4.00" from="35822075#0" to="-31101515#2"/>
    <trip id="14" depart="4.00" from="154121319" to="255916848"/>
    <trip id="15" depart="5.00" from="-29209868#4" to="70896504"/>
    <trip id="16" depart="5.00" from="26714617#3" to="67991933#1"/>
    <trip id="17" depart="5.00" from="25788669#4" to="-66531376#3"/>
    <trip id="18" depart="5.00" from="-66749634" to="36127755#2"/>
    <trip id="19" depart="5.00" from="55302493" to="66158706#4"/>
    <trip id="20" depart="5.00" from="139887102#2" to="603944957"/>
    <trip id="21" depart="6.00" from="70727106" to="67996904#2"/>
    <trip id="22" depart="6.00" from="66158677#3" to="-64968144"/>
    <trip id="23" depart="6.00" from="55308625#1" to="67996890"/>
    <trip id="24" depart="6.00" from="-70708458#0" to="-505591459"/>
    <trip id="25" depart="6.00" from="-68083168" to="25342522#3"/>
    <trip id="26" depart="7.00" from="-68083883#2" to="33175693#5"/>
    <trip id="27" depart="7.00" from="67991960#1" to="-65409576#1"/>
    <trip id="28" depart="7.00" from="68083171#1" to="66736797#5"/>
    <trip id="29" depart="7.00" from="26714689#7" to="-67988112#0"/>
    <trip id="30" depart="8.00" from="-67988102#0" to="52106431#1"/>
    <trip id="31" depart="8.00" from="-205090640#5" to="-65399977#8"/>
    <trip id="32" depart="9.00" from="148945749" to="66736825#1"/>
    <trip id="33" depart="9.00" from="-166830018" to="68081437"/>
    <trip id="34" depart="9.00" from="176593426#2" to="3728383#6-AddedOffRampEdge"/>
    <trip id="35" depart="9.00" from="-1880547#7" to="68081411#1"/>
    <trip id="36" depart="10.00" from="73026633#0" to="66531349"/>
    <trip id="37" depart="10.00" from="-26715891#6" to="55305582"/>
    <trip id="38" depart="10.00" from="36408652#4" to="65411687#0"/>
    <trip id="39" depart="10.00" from="66528826#0" to="-66749633#1"/>
    <trip id="40" depart="10.00" from="-68048283#3" to="55302538#4"/>
    <trip id="41" depart="10.00" from="178089972#6" to="-65411669#0"/>
    <trip id="42" depart="10.00" from="68083077#8" to="-65400736#1"/>
    <trip id="43" depart="10.00" from="-70708512" to="-4078614#8"/>
    <trip id="44" depart="11.00" from="-176387107#4" to="55305576#1"/>
    <trip id="45" depart="11.00" from="-31101402#14" to="-70001018#0"/>
    <trip id="46" depart="11.00" from="-30684859#0" to="-55302528"/>
    <trip id="47" depart="11.00" from="24152761#5" to="65411968"/>
    <trip id="48" depart="12.00" from="26714319#1" to="66533793#3"/>
    <trip id="49" depart="12.00" from="65409586" to="273566183#1"/>
    <trip id="50" depart="13.00" from="-126137535#6" to="236099691"/>
    <trip id="51" depart="13.00" from="-30986865#0" to="66732278#1"/>
    <trip id="52" depart="13.00" from="8042929" to="126137524#0"/>
    <trip id="53" depart="13.00" from="66723717#0" to="-26714310#8"/>
    <trip id="54" depart="15.00" from="-52106432#2" to="-99366610#5"/>
    <trip id="55" depart="15.00" from="35822076" to="4885695#0"/>
    <trip id="56" depart="16.00" from="66536024#0" to="141814067#1"/>
    <trip id="57" depart="16.00" from="-65409600#10" to="66748788#3"/>
    <trip id="58" depart="16.00" from="-66531386" to="464314002#8"/>
    <trip id="59" depart="16.00" from="-249171399#1" to="137379518#0"/>
    <trip id="60" depart="16.00" from="66528803" to="-25342008#1"/>
    <trip id="61" depart="16.00" from="-55305593#0" to="34588153#0"/>
    <trip id="62" depart="16.00" from="-52113245#3" to="28548851#14"/>
    <trip id="63" depart="17.00" from="-26715286#1" to="66097367#6"/>
    <trip id="64" depart="17.00" from="-67991902#1" to="70724103#2"/>
    <trip id="65" depart="17.00" from="-66531341#1" to="68002178"/>
    <trip id="66" depart="18.00" from="-238911342#1" to="34588153#3"/>
    <trip id="67" depart="18.00" from="-55304089" to="-70733903"/>
    <trip id="68" depart="19.00" from="68083177" to="-67988131#4"/>
    <trip id="69" depart="19.00" from="-126137535#8" to="-238074089"/>
    <trip id="70" depart="19.00" from="65410484#0" to="-66158704#2"/>
    <trip id="71" depart="19.00" from="-70896279#2" to="-67991972#1"/>
    <trip id="72" depart="20.00" from="-66736782#4" to="-68051940"/>
    <trip id="73" depart="20.00" from="99366610#2" to="-55302519#3"/>
    <trip id="74" depart="20.00" from="68077751#2" to="70708450#10"/>
    <trip id="75" depart="21.00" from="-505591465#0" to="-67991927"/>
    <trip id="76" depart="21.00" from="-26714805#3" to="-66166969"/>
    <trip id="77" depart="21.00" from="55200099#0" to="36895510#2"/>
    <trip id="78" depart="21.00" from="-89715927#2" to="-30986866#1"/>
    <trip id="79" depart="21.00" from="-73028024#2" to="-24152790#1"/>
    <trip id="80" depart="22.00" from="70904242#0" to="-55302513#4"/>
    <trip id="81" depart="22.00" from="408681561#1" to="-26502398#2"/>
    <trip id="82" depart="22.00" from="66732278#1" to="-65409587"/>
    <trip id="83" depart="22.00" from="176387107#16" to="65409589#0"/>
    <trip id="84" depart="22.00" from="99412951#0" to="36895535#1"/>
    <trip id="85" depart="24.00" from="-70906289#0" to="-68083171#0"/>
    <trip id="86" depart="25.00" from="-36127774#0" to="-36157058"/>
    <trip id="87" depart="25.00" from="-68083175#1" to="55200095#0"/>
    <trip id="88" depart="26.00" from="-70906419#1" to="-25342413#2"/>
    <trip id="89" depart="26.00" from="52035133" to="26714212"/>
    <trip id="90" depart="26.00" from="66097367#2" to="-584320637#2"/>
    <trip id="91" depart="26.00" from="487410641#2" to="-26715838#4"/>
    <trip id="92" depart="26.00" from="65399990#2" to="-66536053#5"/>
    <trip id="93" depart="27.00" from="67991972#2" to="4589345#0"/>
    <trip id="94" depart="27.00" from="-66732282" to="-99366610#4"/>
    <trip id="95" depart="27.00" from="-36922354#2" to="-70994787#3"/>
    <trip id="96" depart="27.00" from="55210351#0" to="66533798"/>
    <trip id="97" depart="28.00" from="-36895499" to="70993228"/>
    <trip id="98" depart="28.00" from="68061258" to="36895508#1"/>
    <trip id="99" depart="28.00" from="-68002171#2" to="-65399977#9"/>
    <trip id="100" depart="28.00" from="-66745002#1" to="-67991966#0"/>
    <trip id="101" depart="28.00" from="-25342522#7" to="-68077745#2"/>
    <trip id="102" depart="28.00" from="-68077806#0" to="36922352"/>
    <trip id="103" depart="29.00" from="-26637939#3" to="-55200093#1"/>
    <trip id="104" depart="29.00" from="256650561#0" to="68077744"/>
    <trip id="105" depart="29.00" from="-66745002#0" to="36895530#1"/>
    <trip id="106" depart="29.00" from="-68061238" to="-55310584"/>
    <trip id="107" depart="29.00" from="66376479#1" to="68077841#1"/>
    <trip id="108" depart="30.00" from="70734005" to="-36408603#1"/>
    <trip id="109" depart="30.00" from="-36408627" to="65411693#4"/>
    <trip id="110" depart="31.00" from="-36408627" to="-55199478#3"/>
    <trip id="111" depart="31.00" from="55210336#0" to="-66528798#0"/>
    <trip id="112" depart="32.00" from="-55199494#0" to="66748792"/>
    <trip id="113" depart="32.00" from="70011060" to="70708505#1"/>
    <trip id="114" depart="32.00" from="-70733930#10" to="-67991972#2"/>
    <trip id="115" depart="34.00" from="99412964" to="68048283#2"/>
    <trip id="116" depart="34.00" from="52098074" to="-52106432#0"/>
    <trip id="117" depart="34.00" from="-66533800#1" to="-67991907#0"/>
    <trip id="118" depart="34.00" from="70001135" to="-29209868#4"/>
    <trip id="119" depart="34.00" from="-178135255#1" to="-68077750#1"/>
    <trip id="120" depart="35.00" from="-68048238#1" to="66528791"/>
    <trip id="121" depart="35.00" from="-70997856#1" to="26715243#0"/>
    <trip id="122" depart="35.00" from="420237315#0" to="31016580#0"/>
    <trip id="123" depart="35.00" from="36127738" to="-70906419#3"/>
    <trip id="124" depart="36.00" from="29898093" to="70011101#1"/>
    <trip id="125" depart="36.00" from="-265048486#11" to="-67991906"/>
    <trip id="126" depart="37.00" from="-154121313#1" to="-55210351#2"/>
    <trip id="127" depart="37.00" from="66376450" to="36408598#2"/>
    <trip id="128" depart="37.00" from="-68048288#1" to="176389407#1"/>
    <trip id="129" depart="38.00" from="8602873#7" to="70708505#2"/>
    <trip id="130" depart="38.00" from="26715570#4" to="55210350"/>
    <trip id="131" depart="38.00" from="-65409578#4" to="-26714985#7"/>
    <trip id="132" depart="38.00" from="26715755#0" to="36408655"/>
    <trip id="133" depart="38.00" from="178089972#12" to="26714301#4"/>
    <trip id="134" depart="39.00" from="70994790#2" to="-55310540"/>
    <trip id="135" depart="39.00" from="24152920#7" to="146463997#6"/>
    <trip id="136" depart="40.00" from="36127804#5" to="130905039#0"/>
    <trip id="137" depart="40.00" from="25342413#1" to="70877270#4"/>
    <trip id="138" depart="40.00" from="-26714250#0" to="-70001012"/>
    <trip id="139" depart="40.00" from="-66744992" to="31101515#0"/>
    <trip id="140" depart="41.00" from="-70727099#1" to="-55305604#2"/>
    <trip id="141" depart="41.00" from="68048283#0" to="-66528801#2"/>
    <trip id="142" depart="41.00" from="-65410838#0" to="-24152808#3"/>
    <trip id="143" depart="41.00" from="66158706#5" to="-65411688"/>
    <trip id="144" depart="41.00" from="55210624#3" to="55305582"/>
    <trip id="145" depart="41.00" from="-26715426#1" to="70896718#1"/>
    <trip id="146" depart="42.00" from="-70727101" to="68048292#0"/>
    <trip id="147" depart="42.00" from="-136736863#0" to="-26714838"/>
    <trip id="148" depart="42.00" from="66158682" to="154121308#1"/>
    <trip id="149" depart="43.00" from="-190811516#1" to="172813459"/>
    <trip id="150" depart="43.00" from="-68078394#0" to="-66744612"/>
    <trip id="151" depart="43.00" from="-70994790#2" to="-70708567#0"/>
    <trip id="152" depart="44.00" from="-70896436" to="372631598#3"/>
    <trip id="153" depart="44.00" from="-65397243#5" to="-36895483#7"/>
    <trip id="154" depart="44.00" from="-65411672#0" to="176540095#0"/>
    <trip id="155" depart="44.00" from="-55188969#0" to="26715977"/>
    <trip id="156" depart="45.00" from="-67991916#1" to="-178086295#1"/>
    <trip id="157" depart="46.00" from="-26714316" to="55199494#1"/>
    <trip id="158" depart="46.00" from="70988900#0" to="26715959#10"/>
    <trip id="159" depart="46.00" from="-390787409#1" to="68002171#5"/>
    <trip id="160" depart="46.00" from="139976792" to="-70896660#3"/>
    <trip id="161" depart="47.00" from="-70896660#2" to="55211164#2"/>
    <trip id="162" depart="47.00" from="-55302533#5" to="-36127756#0"/>
    <trip id="163" depart="47.00" from="-65400736#0" to="-55188971#2"/>
    <trip id="164" depart="47.00" from="68077833#0" to="65409591#6"/>
    <trip id="165" depart="48.00" from="25342522#9" to="-8042930#9"/>
    <trip id="166" depart="48.00" from="55302519#0" to="-68002170#3"/>
    <trip id="167" depart="48.00" from="4082952#1" to="-28770016"/>
    <trip id="168" depart="49.00" from="4885693" to="29898084#3"/>
    <trip id="169" depart="49.00" from="68048270#1" to="176540105#9"/>
    <trip id="170" depart="49.00" from="65410836#1" to="70011060"/>
    <trip id="171" depart="49.00" from="-464314007#2" to="135808078"/>
    <trip id="172" depart="49.00" from="70989061#0" to="-35822074#0"/>
    <trip id="173" depart="49.00" from="-55302523#0" to="-66528814#2"/>
    <trip id="174" depart="49.00" from="70690418" to="-36895510#2"/>
    <trip id="175" depart="49.00" from="66531352#8" to="66742387#2"/>
    <trip id="176" depart="49.00" from="-65411678#0" to="66742413#0"/>
    <trip id="177" depart="49.00" from="19528924#2" to="26552883#0"/>
    <trip id="178" depart="50.00" from="205090640#0" to="-66158686#2"/>
    <trip id="179" depart="50.00" from="-65409578#0" to="-26714752#1"/>
    <trip id="180" depart="50.00" from="55210336#2" to="25788898"/>
    <trip id="181" depart="50.00" from="139896526#1" to="-1880547#10"/>
    <trip id="182" depart="51.00" from="-68077750#0" to="65409600#0"/>
    <trip id="183" depart="51.00" from="-66531341#1" to="-25788666#4"/>
    <trip id="184" depart="51.00" from="-99743078#5" to="238911342#10"/>
    <trip id="185" depart="52.00" from="66097359" to="-70724768"/>
    <trip id="186" depart="52.00" from="68061246#4" to="55304143"/>
    <trip id="187" depart="52.00" from="-70998528#1" to="68084777#1"/>
    <trip id="188" depart="52.00" from="68083881#4" to="559919637#5"/>
    <trip id="189" depart="53.00" from="36895503#2" to="35822075#0"/>
    <trip id="190" depart="53.00" from="-65411683#1" to="-66736797#3"/>
    <trip id="191" depart="53.00" from="68048259" to="-36408642#17"/>
    <trip id="192" depart="53.00" from="55199472" to="26713996#2"/>
    <trip id="193" depart="54.00" from="-68084655#1" to="-66158678#1"/>
    <trip id="194" depart="54.00" from="-52113245#8" to="68077757#2"/>
    <trip id="195" depart="54.00" from="-66739520#0" to="180326644#0"/>
    <trip id="196" depart="55.00" from="67988128#0" to="-55302506#1"/>
    <trip id="197" depart="55.00" from="65399975" to="-70727099#7"/>
    <trip id="198" depart="55.00" from="139976793" to="70988990#1"/>
    <trip id="199" depart="55.00" from="36127780#1" to="36127803"/>
    <trip id="200" depart="56.00" from="68061242" to="36895483#6"/>
    <trip id="201" depart="56.00" from="68084775#2" to="55308603#0"/>
    <trip id="202" depart="56.00" from="-137382187" to="176540944"/>
    <trip id="203" depart="57.00" from="139976258#0" to="52157229"/>
    <trip id="204" depart="57.00" from="-70690111#3" to="-67991958"/>
    <trip id="205" depart="58.00" from="35822085#0" to="176387106#1"/>
    <trip id="206" depart="58.00" from="68077776#1" to="68083184#0"/>
    <trip id="207" depart="58.00" from="-68077764" to="55211251#1"/>
    <trip id="208" depart="58.00" from="-26714903" to="68081476#2"/>
    <trip id="209" depart="58.00" from="-68083879" to="66536039"/>
    <trip id="210" depart="59.00" from="70997884" to="66158697#3"/>
    <trip id="211" depart="59.00" from="377962487#4" to="66528791"/>
    <trip id="212" depart="59.00" from="52113245#4" to="68081453#6"/>
    <trip id="213" depart="59.00" from="-70896550" to="-55312662#1"/>
    <trip id="214" depart="59.00" from="66744615" to="66742400"/>
    <trip id="215" depart="59.00" from="-30986867#1" to="68077792#0"/>
    <trip id="216" depart="60.00" from="-26714689#5" to="66742387#2"/>
    <trip id="217" depart="60.00" from="51984540#2" to="26477568#1"/>
    <trip id="218" depart="60.00" from="65411961" to="52098514#2"/>
    <trip id="219" depart="60.00" from="-67996904#1" to="8602868#6"/>
    <trip id="220" depart="61.00" from="66531335" to="410504190#0"/>
    <trip id="221" depart="61.00" from="-26714989#1" to="34588150#1"/>
    <trip id="222" depart="61.00" from="55210624#4" to="66739509#0"/>
    <trip id="223" depart="61.00" from="68083877" to="-70989062"/>
    <trip id="224" depart="61.00" from="-52114264" to="-65409600#9"/>
    <trip id="225" depart="62.00" from="26714319#0" to="25721034#6"/>
    <trip id="226" depart="62.00" from="265048894#4" to="26714997"/>
    <trip id="227" depart="63.00" from="55210350" to="66533797"/>
    <trip id="228" depart="63.00" from="67991916#0" to="65409589#0"/>
    <trip id="229" depart="63.00" from="-238911345#0" to="-65397238#1"/>
    <trip id="230" depart="63.00" from="55310556#0" to="68077740#0"/>
    <trip id="231" depart="64.00" from="52102594#0" to="66739520#1"/>
    <trip id="232" depart="64.00" from="-65411672#0" to="-70896279#1"/>
    <trip id="233" depart="64.00" from="70708441" to="8276901#0"/>
    <trip id="234" depart="65.00" from="25788665#1" to="65411667"/>
    <trip id="235" depart="65.00" from="-66749638#2" to="68081459"/>
    <trip id="236" depart="65.00" from="178079991#0" to="66723717#10"/>
    <trip id="237" depart="65.00" from="58711657#0" to="70906419#0"/>
    <trip id="238" depart="66.00" from="-66376430#1" to="36127763"/>
    <trip id="239" depart="66.00" from="154121308#1" to="70708449"/>
    <trip id="240" depart="66.00" from="-603944957" to="99366610#3"/>
    <trip id="241" depart="66.00" from="-28548851#6" to="-68051925#2"/>
    <trip id="242" depart="67.00" from="-70734029" to="139975629#4"/>
    <trip id="243" depart="67.00" from="4082951#3" to="31427672#0"/>
    <trip id="244" depart="67.00" from="101809024" to="66528775#7"/>
    <trip id="245" depart="67.00" from="76476576#0" to="-68061238"/>
    <trip id="246" depart="67.00" from="36408611#2" to="3728382#7"/>
    <trip id="247" depart="68.00" from="35822077#0" to="67991974"/>
    <trip id="248" depart="68.00" from="-51984528#1" to="70906420#12"/>
    <trip id="249" depart="68.00" from="-66748803#1" to="70877251#1"/>
    <trip id="250" depart="68.00" from="-70708568#1" to="-66531343"/>
    <trip id="251" depart="68.00" from="-70988990#0" to="52102590#2"/>
    <trip id="252" depart="69.00" from="25788671" to="36922355#5"/>
    <trip id="253" depart="69.00" from="8226517" to="55188971#10"/>
    <trip id="254" depart="70.00" from="26715891#0" to="-65410487"/>
    <trip id="255" depart="70.00" from="-66531370" to="101809025#8"/>
    <trip id="256" depart="70.00" from="-67989220#0" to="-36922350#1"/>
    <trip id="257" depart="71.00" from="-66097367#7" to="66376451#0"/>
    <trip id="258" depart="71.00" from="55200101" to="-70733930#6"/>
    <trip id="259" depart="71.00" from="70708568#1" to="-26715778#0"/>
    <trip id="260" depart="71.00" from="-29209868#0" to="68081437"/>
    <trip id="261" depart="72.00" from="-65411949#1" to="68077751#2"/>
    <trip id="262" depart="73.00" from="36895504#0" to="70708461#0"/>
    <trip id="263" depart="73.00" from="24152761#5" to="68081463#0"/>
    <trip id="264" depart="73.00" from="26715657" to="274686565#1"/>
    <trip id="265" depart="75.00" from="139308558#0" to="249171399#0"/>
    <trip id="266" depart="75.00" from="-68002171#7" to="-66732278#0"/>
    <trip id="267" depart="75.00" from="66531324" to="68084635"/>
    <trip id="268" depart="76.00" from="-68081457" to="-68002181"/>
    <trip id="269" depart="76.00" from="26714985#1" to="-154121305#1"/>
    <trip id="270" depart="77.00" from="70690214#0" to="70994790#0"/>
    <trip id="271" depart="77.00" from="-68048286" to="36127739"/>
    <trip id="272" depart="77.00" from="70993204#1" to="55210358#1"/>
    <trip id="273" depart="79.00" from="70896647#2" to="-31101515#3"/>
    <trip id="274" depart="79.00" from="-66158683" to="99366610#6"/>
    <trip id="275" depart="79.00" from="-66531352#7" to="65411969#0"/>
    <trip id="276" depart="80.00" from="-68061236" to="-36127739"/>
    <trip id="277" depart="80.00" from="-55302513#4" to="26714891#0"/>
    <trip id="278" depart="80.00" from="256502197#2" to="-66536015#2"/>
    <trip id="279" depart="80.00" from="-224923661#4" to="70690125#2"/>
    <trip id="280" depart="81.00" from="-55304119#1" to="-68077751#0"/>
    <trip id="281" depart="82.00" from="110273457#3" to="-70008377#1"/>
    <trip id="282" depart="82.00" from="25788672" to="-31101402#2"/>
    <trip id="283" depart="82.00" from="176543474#0" to="-70995256#1"/>
    <trip id="284" depart="83.00" from="-176383520" to="68084630"/>
    <trip id="285" depart="83.00" from="-55210624#5" to="68077794#0"/>
    <trip id="286" depart="83.00" from="68084651#5" to="8602874"/>
    <trip id="287" depart="83.00" from="66744620#2" to="424601827"/>
    <trip id="288" depart="83.00" from="-55199458" to="68049401#1"/>
    <trip id="289" depart="83.00" from="-68084651#1" to="-70995252"/>
    <trip id="290" depart="84.00" from="51984540#0" to="75538813"/>
    <trip id="291" depart="84.00" from="68083883#4" to="35822083#2"/>
    <trip id="292" depart="84.00" from="4082955#9" to="-8276906#1"/>
    <trip id="293" depart="84.00" from="-65411673#1" to="4589343#7"/>
    <trip id="294" depart="85.00" from="36408642#18" to="176387106#1"/>
    <trip id="295" depart="85.00" from="65411969#1" to="-70011044#0"/>
    <trip id="296" depart="85.00" from="66723723#2" to="4885690-AddedOffRampEdge"/>
    <trip id="297" depart="86.00" from="65410855#4" to="-70896279#2"/>
    <trip id="298" depart="86.00" from="-30017830#5" to="-68084626#1"/>
    <trip id="299" depart="87.00" from="68081425#0" to="25342550#0"/>
    <trip id="300" depart="87.00" from="67991954#1" to="176593421#1"/>
    <trip id="301" depart="87.00" from="-65410836#1" to="-26714052#1"/>
    <trip id="302" depart="88.00" from="66158691#0" to="-51984521#0"/>
    <trip id="303" depart="88.00" from="4885690" to="70896576"/>
    <trip id="304" depart="88.00" from="70733987#0" to="-68083169"/>
    <trip id="305" depart="89.00" from="70708419" to="-36895490"/>
    <trip id="306" depart="89.00" from="1096107#6" to="55302496#2"/>
    <trip id="307" depart="89.00" from="25342412#1" to="-70708450#9"/>
    <trip id="308" depart="89.00" from="-66531309" to="-68077806#2"/>
    <trip id="309" depart="89.00" from="-596122296" to="65410853#0"/>
    <trip id="310" depart="90.00" from="-36895484" to="70708476#1"/>
    <trip id="311" depart="90.00" from="70690125#1" to="-55210361"/>
    <trip id="312" depart="90.00" from="55305595" to="-68083172"/>
    <trip id="313" depart="90.00" from="55302525#0" to="-65411952"/>
    <trip id="314" depart="91.00" from="-66744623" to="-36127758"/>
    <trip id="315" depart="91.00" from="26715408#0" to="-65400737#1"/>
    <trip id="316" depart="91.00" from="55210354#0" to="66528808#1"/>
    <trip id="317" depart="91.00" from="-26714989#0" to="70989064"/>
    <trip id="318" depart="92.00" from="-66536025#1" to="66158700#1"/>
    <trip id="319" depart="92.00" from="-26715977" to="26709839"/>
    <trip id="320" depart="92.00" from="67988131#6" to="-66158705#0"/>
    <trip id="321" depart="93.00" from="68084654#3" to="-178086282"/>
    <trip id="322" depart="93.00" from="-71515452" to="8602873#6"/>
    <trip id="323" depart="93.00" from="-58711657#1" to="-362156149#0"/>
    <trip id="324" depart="93.00" from="205090640#13" to="26714316"/>
    <trip id="325" depart="93.00" from="29898084#4" to="-26716006"/>
    <trip id="326" depart="94.00" from="-65409579#1" to="110310830#1"/>
    <trip id="327" depart="94.00" from="-130905039#3" to="-70995250"/>
    <trip id="328" depart="94.00" from="-67991988#1" to="136736863#1"/>
    <trip id="329" depart="95.00" from="-66742402#1" to="55302497"/>
    <trip id="330" depart="96.00" from="4078614#9" to="-26715048"/>
    <trip id="331" depart="96.00" from="-55304076#0" to="-99743078#1"/>
    <trip id="332" depart="97.00" from="-65399980" to="-26715891#7"/>
    <trip id="333" depart="97.00" from="-68077796#1" to="26715426#3"/>
    <trip id="334" depart="97.00" from="70690259#2" to="68084652"/>
    <trip id="335" depart="98.00" from="65411969#2" to="36408598#1"/>
    <trip id="336" depart="98.00" from="-36922355#3" to="154121308#1"/>
    <trip id="337" depart="98.00" from="55195957#2" to="19528925"/>
    <trip id="338" depart="98.00" from="-73028024#2" to="-67991976#1"/>
    <trip id="339" depart="98.00" from="-66528821" to="52113264#0"/>
    <trip id="340" depart="99.00" from="66723722" to="68081471#1"/>
    <trip id="341" depart="99.00" from="-29209868#1" to="70896595#0"/>
    <trip id="342" depart="99.00" from="176384076#0" to="70708449"/>
    <trip id="343" depart="99.00" from="-66158697#1" to="306527861#0"/>
    <trip id="344" depart="99.00" from="-28548851#2" to="487410641#5"/>
    <trip id="345" depart="99.00" from="-26714767#8" to="26715572#1"/>
    <trip id="346" depart="99.00" from="4479890#3" to="55308637#0"/>
    <trip id="347" depart="99.00" from="26713996#2" to="-68084645#2"/>
    <trip id="348" depart="100.00" from="-25721034#1" to="26715674"/>
    <trip id="349" depart="100.00" from="8602868#6" to="26714985#19"/>
    <trip id="350" depart="100.00" from="-25342414#1" to="-99366610#3"/>
    <trip id="351" depart="100.00" from="205090640#10" to="224923661#8"/>
    <trip id="352" depart="101.00" from="66736841#1" to="-70690164#0"/>
    <trip id="353" depart="101.00" from="65409571" to="70906419#1"/>
    <trip id="354" depart="101.00" from="-36922339#1" to="68083181"/>
    <trip id="355" depart="101.00" from="66739523#0" to="26714985#11"/>
    <trip id="356" depart="102.00" from="-559919637#4" to="89715936"/>
    <trip id="357" depart="102.00" from="-65411960#5" to="-559919637#1"/>
    <trip id="358" depart="102.00" from="-52113256" to="65399988#0"/>
    <trip id="359" depart="103.00" from="66732282" to="70724103#3"/>
    <trip id="360" depart="103.00" from="-66531352#4" to="-51984536#2"/>
    <trip id="361" depart="103.00" from="135808665" to="-26714309#3"/>
    <trip id="362" depart="103.00" from="68083881#3" to="26714310#0"/>
    <trip id="363" depart="103.00" from="-66376468" to="176543474#2"/>
    <trip id="364" depart="103.00" from="25342523#1" to="-66536025#1"/>
    <trip id="365" depart="104.00" from="25788666#7" to="8042932#1"/>
    <trip id="366" depart="104.00" from="68002170#1" to="-101809025#7"/>
    <trip id="367" depart="104.00" from="68048242#1" to="253076310#1"/>
    <trip id="368" depart="104.00" from="35824449#4" to="-68002171#0"/>
    <trip id="369" depart="104.00" from="52113264#0" to="-51984540#1"/>
    <trip id="370" depart="105.00" from="-55179374#1" to="-68084777#1"/>
    <trip id="371" depart="105.00" from="-176387107#16" to="-66531307"/>
    <trip id="372" depart="105.00" from="67991930#4" to="65400735"/>
    <trip id="373" depart="105.00" from="-517081967" to="101809025#3"/>
    <trip id="374" depart="105.00" from="55200099#0" to="-30684907#1"/>
    <trip id="375" depart="105.00" from="-176387107#19" to="-68081476#2"/>
    <trip id="376" depart="106.00" from="-26714842#2" to="-55179374#0"/>
    <trip id="377" depart="106.00" from="55199461#0" to="65168113#1"/>
    <trip id="378" depart="107.00" from="31427671" to="-70708453#3"/>
    <trip id="379" depart="107.00" from="55302519#1" to="26715710#4"/>
    <trip id="380" depart="108.00" from="66528788" to="-66531305"/>
    <trip id="381" depart="108.00" from="26714689#9" to="26715639#1"/>
    <trip id="382" depart="108.00" from="-66376477#2" to="372620157"/>
    <trip id="383" depart="108.00" from="-70727098" to="68077822#0"/>
    <trip id="384" depart="108.00" from="-67988118#0" to="67996912#2"/>
    <trip id="385" depart="109.00" from="372620127" to="-34588150#2"/>
    <trip id="386" depart="109.00" from="-25341990#0" to="-176593421#2"/>
    <trip id="387" depart="109.00" from="-9923223#4" to="-68002171#2"/>
    <trip id="388" depart="110.00" from="-154121308#1" to="-67988131#9"/>
    <trip id="389" depart="110.00" from="-8042931#1" to="26715590#2"/>
    <trip id="390" depart="110.00" from="66744628#1" to="-28770016"/>
    <trip id="391" depart="111.00" from="-66376476#2" to="65409600#0"/>
    <trip id="392" depart="111.00" from="52113245#6" to="-70724103#2"/>
    <trip id="393" depart="111.00" from="-26714309#3" to="-66158698#1"/>
    <trip id="394" depart="112.00" from="66376466#0" to="36127792"/>
    <trip id="395" depart="112.00" from="-51984538" to="-178086295#0"/>
    <trip id="396" depart="113.00" from="-52113245#11" to="66739492#0"/>
    <trip id="397" depart="113.00" from="-65409598#2" to="-418983066#1"/>
    <trip id="398" depart="113.00" from="-26715113" to="55302520"/>
    <trip id="399" depart="114.00" from="26709941#1" to="66376479#1"/>
    <trip id="400" depart="114.00" from="66723721#3" to="66376469#2"/>
    <trip id="401" depart="114.00" from="-26714985#7" to="-70995255#0"/>
    <trip id="402" depart="114.00" from="-70906275#0" to="-66723717#12"/>
    <trip id="403" depart="114.00" from="-66376430#1" to="35822082#0"/>
    <trip id="404" depart="115.00" from="30790967#0" to="73028140"/>
    <trip id="405" depart="116.00" from="-26714301#2" to="55308637#0"/>
    <trip id="406" depart="116.00" from="65400716#3" to="-55210628#0"/>
    <trip id="407" depart="116.00" from="-66748808" to="-55210624#0"/>
    <trip id="408" depart="116.00" from="110310859#4" to="-68077787#4"/>
    <trip id="409" depart="117.00" from="68077744" to="-65411967#1"/>
    <trip id="410" depart="117.00" from="70988946" to="76476571#3"/>
    <trip id="411" depart="117.00" from="65397243#4" to="-26715113"/>
    <trip id="412" depart="117.00" from="-36408612#1" to="-130905044#2"/>
    <trip id="413" depart="118.00" from="52031544" to="66748788#1"/>
    <trip id="414" depart="118.00" from="66749637#0" to="26714767#1"/>
    <trip id="415" depart="119.00" from="-373404265#7" to="52106432#8"/>
    <trip id="416" depart="119.00" from="70733930#1" to="-52106427#1"/>
    <trip id="417" depart="119.00" from="4589343#4" to="-176387107#10"/>
    <trip id="418" depart="119.00" from="76476571#1" to="273566153"/>
    <trip id="419" depart="119.00" from="-68051925#3" to="70690214#0"/>
    <trip id="420" depart="119.00" from="-70877270#9" to="55188971#1"/>
    <trip id="421" depart="119.00" from="55199482#1" to="66376468"/>