<?xml version="1.0" encoding="UTF-8"?>
<!-- generated on 2018-08-12 01:51:52.554349 by $Id$
  options: -n luton.net.xml -e 7200 <doubleminus>fringe-factor 1 <doubleminus>period 0.28 <doubleminus>binomial 30 <doubleminus>min-distance 1000 <doubleminus>route-file routes_luton_9.xml
-->
<routes xmlns:xsi="http://www.w3.org/2001/XMLSchema-instance" xsi:noNamespaceSchemaLocation="http://sumo.dlr.de/xsd/routes_file.xsd">
    <trip id="0" depart="0.00" from="70906420#0" to="-166830018"/>
    <trip id="1" depart="0.00" from="-137379522#0" to="66531317"/>
    <trip id="2" depart="0.00" from="-55211163#0" to="-176387107#17"/>
    <trip id="3" depart="0.00" from="-66744615" to="-26714989#0"/>
    <trip id="4" depart="0.00" from="26714057" to="-68002174#3"/>
    <trip id="5" depart="0.00" from="-36127753#2" to="-55302538#3"/>
    <trip id="6" depart="1.00" from="70906420#4" to="66528826#1"/>
    <trip id="7" depart="2.00" from="-148945749" to="-66528814#4"/>
    <trip id="8" depart="2.00" from="-1096109#3" to="26715758#1"/>
    <trip id="9" depart="2.00" from="-66376444#6" to="-70877270#4"/>
    <trip id="10" depart="2.00" from="-25342413#1" to="26714154#2"/>
    <trip id="11" depart="2.00" from="66533800#1" to="-55302524#0"/>
    <trip id="12" depart="3.00" from="-26715959#9" to="5035337#3"/>
    <trip id="13" depart="3.00" from="36922359#3" to="52106421#4"/>
    <trip id="14" depart="4.00" from="68048240" to="-36127778"/>
    <trip id="15" depart="4.00" from="42758753#0" to="70011101#1"/>
    <trip id="16" depart="4.00" from="26715758#1" to="66528798#1"/>
    <trip id="17" depart="4.00" from="65399965" to="66536052#2"/>
    <trip id="18" depart="4.00" from="66158693#0" to="-26714301#3"/>
    <trip id="19" depart="5.00" from="66739505" to="70724096#0"/>
    <trip id="20" depart="5.00" from="67988244#0" to="30017831#0"/>
    <trip id="21" depart="5.00" from="-55304122" to="-55200078#0"/>
    <trip id="22" depart="6.00" from="154121331" to="126137534#3"/>
    <trip id="23" depart="6.00" from="-67990592#5" to="-70011101#0"/>
    <trip id="24" depart="6.00" from="-70008223#1" to="26715132"/>
    <trip id="25" depart="6.00" from="36127754" to="25788669#1"/>
    <trip id="26" depart="7.00" from="-36408602#4" to="154121319"/>
    <trip id="27" depart="7.00" from="272834153#6" to="126137535#8"/>
    <trip id="28" depart="7.00" from="-26715413#2" to="-26715125#1"/>
    <trip id="29" depart="8.00" from="-55302509" to="-517081966#0"/>
    <trip id="30" depart="8.00" from="-36127787" to="-70906253"/>
    <trip id="31" depart="8.00" from="67990589#3" to="25788941"/>
    <trip id="32" depart="8.00" from="26714689#2" to="65399977#8"/>
    <trip id="33" depart="8.00" from="-65411669#1" to="-70896718#0"/>
    <trip id="34" depart="9.00" from="65410851" to="24152809#0"/>
    <trip id="35" depart="9.00" from="-418983066#2" to="137382187"/>
    <trip id="36" depart="9.00" from="70708446" to="-505591473#1"/>
    <trip id="37" depart="9.00" from="-36895482#1" to="65409576#0"/>
    <trip id="38" depart="10.00" from="-70690286#0" to="-66533800#0"/>
    <trip id="39" depart="10.00" from="66376458#2" to="-36157097"/>
    <trip id="40" depart="10.00" from="-146464557" to="-25841262#1"/>
    <trip id="41" depart="10.00" from="67991974" to="126137535#0"/>
    <trip id="42" depart="10.00" from="26714980#1" to="66744621#0"/>
    <trip id="43" depart="11.00" from="424601818" to="30790967#0"/>
    <trip id="44" depart="11.00" from="-52113264#0" to="-70994796#1"/>
    <trip id="45" depart="11.00" from="34588150#2" to="-70877251#0"/>
    <trip id="46" depart="11.00" from="68083879" to="36408642#10"/>
    <trip id="47" depart="11.00" from="-464314002#9" to="-65411966"/>
    <trip id="48" depart="12.00" from="-55302494#1" to="-373404265#14"/>
    <trip id="49" depart="12.00" from="-68083077#2" to="67991966#2"/>
    <trip id="50" depart="13.00" from="36127780#2" to="110310830#1"/>
    <trip id="51" depart="13.00" from="-55305584" to="24152808#6"/>
    <trip id="52" depart="13.00" from="52098069#0" to="70724096#0"/>
    <trip id="53" depart="14.00" from="30017827#4" to="65410482#0"/>
    <trip id="54" depart="14.00" from="-67991902#0" to="-66528781#3"/>
    <trip id="55" depart="14.00" from="205090646#7" to="52106432#5"/>
    <trip id="56" depart="14.00" from="36895486#2" to="-68083875#0"/>
    <trip id="57" depart="14.00" from="25841270#3" to="-65410838#2"/>
    <trip id="58" depart="15.00" from="70896472" to="66376476#0"/>
    <trip id="59" depart="16.00" from="-66531376#1" to="-36127772"/>
    <trip id="60" depart="17.00" from="-187148105#1" to="70906420#8"/>
    <trip id="61" depart="17.00" from="36922359#3" to="26714954#1"/>
    <trip id="62" depart="17.00" from="154121302" to="-67989219"/>
    <trip id="63" depart="17.00" from="-100651640#2" to="65397236#1"/>
    <trip id="64" depart="18.00" from="99033489#3" to="67988130"/>
    <trip id="65" depart="18.00" from="487410641#0" to="31101402#2"/>
    <trip id="66" depart="18.00" from="-65409575#0" to="29898087"/>
    <trip id="67" depart="19.00" from="66158702#2" to="8276906#4"/>
    <trip id="68" depart="19.00" from="70994790#1" to="26713941#0"/>
    <trip id="69" depart="19.00" from="166527669#1" to="-8295406#2"/>
    <trip id="70" depart="19.00" from="148945752" to="-35824448#3"/>
    <trip id="71" depart="20.00" from="25841264#2" to="24152819"/>
    <trip id="72" depart="21.00" from="-205090640#7" to="-30986867#0"/>
    <trip id="73" depart="21.00" from="70896515" to="-26714857#7"/>
    <trip id="74" depart="22.00" from="5866330#1" to="70896679"/>
    <trip id="75" depart="22.00" from="68078394#0" to="70995253#1"/>
    <trip id="76" depart="23.00" from="-36895487#5" to="-68048278"/>
    <trip id="77" depart="23.00" from="-66742387#0" to="-70877267#1"/>
    <trip id="78" depart="23.00" from="247762330" to="-25788666#3"/>
    <trip id="79" depart="24.00" from="68083881#4" to="42991330"/>
    <trip id="80" depart="24.00" from="99367049#0" to="36895491#1"/>
    <trip id="81" depart="24.00" from="36408611#6" to="-52113245#9"/>
    <trip id="82" depart="24.00" from="-70708567#1" to="100652523#1"/>
    <trip id="83" depart="24.00" from="180326625" to="-65409571"/>
    <trip id="84" depart="25.00" from="26715755#0" to="67991990#0"/>
    <trip id="85" depart="25.00" from="71515453#2" to="76476571#2"/>
    <trip id="86" depart="25.00" from="66744620#2" to="66723721#3"/>
    <trip id="87" depart="25.00" from="139015850#1" to="487410641#1"/>
    <trip id="88" depart="26.00" from="26637939#0" to="66739523#1"/>
    <trip id="89" depart="27.00" from="-66742462" to="26714965"/>
    <trip id="90" depart="27.00" from="66167025" to="157165203"/>
    <trip id="91" depart="27.00" from="-55199482#0" to="176540105#9"/>
    <trip id="92" depart="27.00" from="415375703" to="390272648"/>
    <trip id="93" depart="27.00" from="70001018#5" to="-68077819#1"/>
    <trip id="94" depart="27.00" from="-55199452#2" to="-26714780#2"/>
    <trip id="95" depart="27.00" from="-65411678#3" to="67988135#1"/>
    <trip id="96" depart="27.00" from="487410641#6" to="66744613#5"/>
    <trip id="97" depart="28.00" from="-68083883#0" to="70988959#1"/>
    <trip id="98" depart="28.00" from="26637939#1" to="26714273#0"/>
    <trip id="99" depart="28.00" from="-55312662#0" to="-99036307#1"/>
    <trip id="100" depart="28.00" from="26714188" to="194715453#4"/>
    <trip id="101" depart="29.00" from="55210353" to="66736797#0"/>
    <trip id="102" depart="29.00" from="66166975#0" to="36895487#0"/>
    <trip id="103" depart="29.00" from="-70877247" to="-36408602#1"/>
    <trip id="104" depart="30.00" from="-70896660#8" to="52113264#0"/>
    <trip id="105" depart="31.00" from="65411668#3" to="-67988118#1"/>
    <trip id="106" depart="31.00" from="68077828" to="-65397243#4"/>
    <trip id="107" depart="31.00" from="26714301#3" to="-26715091#5"/>
    <trip id="108" depart="32.00" from="139896526#1" to="-194377712"/>
    <trip id="109" depart="32.00" from="-67991972#1" to="-498929259#1"/>
    <trip id="110" depart="32.00" from="-36127737" to="-70708425"/>
    <trip id="111" depart="32.00" from="-55302533#5" to="-101809025#1"/>
    <trip id="112" depart="33.00" from="-68081416" to="-26714640"/>
    <trip id="113" depart="33.00" from="-65410857" to="26714420#3"/>
    <trip id="114" depart="34.00" from="-62279915" to="65411693#4"/>
    <trip id="115" depart="34.00" from="-66528831" to="-66739505"/>
    <trip id="116" depart="34.00" from="-70998528#1" to="66744626"/>
    <trip id="117" depart="34.00" from="-68084654#3" to="26715672#3"/>
    <trip id="118" depart="35.00" from="52098514#1" to="66732285#1"/>
    <trip id="119" depart="35.00" from="-68051924" to="26715950"/>
    <trip id="120" depart="35.00" from="26715125#0" to="-70906420#15"/>
    <trip id="121" depart="35.00" from="55310549#0" to="25342009#0"/>
    <trip id="122" depart="35.00" from="-67990594#1" to="-66739500#0"/>
    <trip id="123" depart="35.00" from="-36127773#1" to="-154121299#1"/>
    <trip id="124" depart="36.00" from="70988959#0" to="36408609"/>
    <trip id="125" depart="36.00" from="68001642#1" to="-25342464#5"/>
    <trip id="126" depart="37.00" from="66531352#7" to="-65411960#3"/>
    <trip id="127" depart="37.00" from="-67990587#1" to="55188971#3"/>
    <trip id="128" depart="37.00" from="-178067959#0" to="65397236#3"/>
    <trip id="129" depart="37.00" from="-65399986" to="26715709#4"/>
    <trip id="130" depart="37.00" from="68084655#1" to="29898071"/>
    <trip id="131" depart="38.00" from="65399977#10" to="-70994802"/>
    <trip id="132" depart="38.00" from="66742427" to="26637829#1"/>
    <trip id="133" depart="38.00" from="-36127780#9" to="-70708505#10"/>
    <trip id="134" depart="38.00" from="66752651#2" to="-36408612#2"/>
    <trip id="135" depart="38.00" from="35822074#4" to="55195957#0"/>
    <trip id="136" depart="39.00" from="-55302536#5" to="-141814095#1"/>
    <trip id="137" depart="39.00" from="25342464#3" to="-70733930#0"/>
    <trip id="138" depart="39.00" from="55210626#1" to="-70989061#0"/>
    <trip id="139" depart="39.00" from="89710017" to="-36408642#16"/>
    <trip id="140" depart="39.00" from="-55199473#0" to="-70906288"/>
    <trip id="141" depart="40.00" from="-66752646#1" to="-68053602#0"/>
    <trip id="142" depart="40.00" from="-238910507#1" to="66723717#4"/>
    <trip id="143" depart="40.00" from="55188971#9" to="-66533778"/>
    <trip id="144" depart="41.00" from="70906270#0" to="-36127794#5"/>
    <trip id="145" depart="41.00" from="24152809#11" to="180326625"/>
    <trip id="146" depart="41.00" from="26715163#0" to="-70988946"/>
    <trip id="147" depart="42.00" from="26715593#0" to="-36127794#3"/>
    <trip id="148" depart="43.00" from="66528797" to="-66739521#1"/>
    <trip id="149" depart="43.00" from="139315881" to="66531300#0"/>
    <trip id="150" depart="44.00" from="70690111#0" to="-55210351#2"/>
    <trip id="151" depart="44.00" from="70733930#1" to="-26714838"/>
    <trip id="152" depart="44.00" from="-67991933#1" to="-68084645#0"/>
    <trip id="153" depart="44.00" from="36408608#4" to="99365364#1"/>
    <trip id="154" depart="44.00" from="178086282" to="-26715408#2"/>
    <trip id="155" depart="44.00" from="-36408603#5" to="26714989#5"/>
    <trip id="156" depart="44.00" from="-70896660#8" to="66097358#2"/>
    <trip id="157" depart="45.00" from="-26714752#0" to="-66739521#2"/>
    <trip id="158" depart="45.00" from="-66097353#0" to="-36408608#3"/>
    <trip id="159" depart="45.00" from="-66528785" to="-55302529"/>
    <trip id="160" depart="45.00" from="-25342466#4" to="-71933299"/>
    <trip id="161" depart="45.00" from="-55310587#1" to="26715418"/>
    <trip id="162" depart="46.00" from="66097368" to="66166969"/>
    <trip id="163" depart="46.00" from="373404265#14" to="-66376434#0"/>
    <trip id="164" depart="46.00" from="23484978#3" to="-68083872"/>
    <trip id="165" depart="46.00" from="65410482#1" to="-55302518"/>
    <trip id="166" depart="47.00" from="-166527669#2" to="26714929#3"/>
    <trip id="167" depart="47.00" from="-66736803#0" to="-26715891#6"/>
    <trip id="168" depart="48.00" from="5866330#0" to="36408612#1"/>
    <trip id="169" depart="48.00" from="-66528817#1" to="273566164"/>
    <trip id="170" depart="49.00" from="-66744617#1" to="65399989#0"/>
    <trip id="171" depart="49.00" from="70906658" to="-66536023#4"/>
    <trip id="172" depart="49.00" from="52113245#2" to="240317094#4"/>
    <trip id="173" depart="49.00" from="-101809025#1" to="146448003#0"/>
    <trip id="174" depart="49.00" from="66742400" to="130905042"/>
    <trip id="175" depart="49.00" from="-66531363#1" to="-66752650#1"/>
    <trip id="176" depart="49.00" from="-36127752" to="58711657#1"/>
    <trip id="177" depart="50.00" from="498929258#2" to="-26715711#1"/>
    <trip id="178" depart="50.00" from="-146464558#2" to="55308576#2"/>
    <trip id="179" depart="51.00" from="70001018#2" to="101809025#2"/>
    <trip id="180" depart="51.00" from="68002174#0" to="-66744628#3"/>
    <trip id="181" depart="52.00" from="26714689#3" to="66376458#0"/>
    <trip id="182" depart="52.00" from="65411960#3" to="-26715792"/>
    <trip id="183" depart="52.00" from="25788772#9" to="-66528808#0"/>
    <trip id="184" depart="52.00" from="66744980" to="66736841#2"/>
    <trip id="185" depart="52.00" from="66536039" to="68048282"/>
    <trip id="186" depart="52.00" from="4082951#5" to="65400716#1"/>
    <trip id="187" depart="53.00" from="66742414#0" to="66752650#4"/>
    <trip id="188" depart="54.00" from="-141814079" to="70690276#0"/>
    <trip id="189" depart="54.00" from="-36127792" to="-217174340"/>
    <trip id="190" depart="54.00" from="25788774#5" to="67996902#1"/>
    <trip id="191" depart="55.00" from="51984549" to="-70896718#0"/>
    <trip id="192" depart="55.00" from="-26714812#2" to="-26714049#1"/>
    <trip id="193" depart="55.00" from="-52098071" to="-66732281#3"/>
    <trip id="194" depart="55.00" from="559919634" to="52113245#9"/>
    <trip id="195" depart="56.00" from="-65411954#2" to="420237315#0"/>
    <trip id="196" depart="56.00" from="-67988111#0" to="390787409#0"/>
    <trip id="197" depart="56.00" from="-66736777#0" to="55304095"/>
    <trip id="198" depart="57.00" from="66739525#1" to="-68081476#5"/>
    <trip id="199" depart="57.00" from="68077833#2" to="-70989061#1"/>
    <trip id="200" depart="57.00" from="-68053602#0" to="-36127791"/>
    <trip id="201" depart="57.00" from="73026633#0" to="26714695#1"/>
    <trip id="202" depart="58.00" from="26714372" to="154121320#1"/>
    <trip id="203" depart="58.00" from="-29209869#4" to="-68083878"/>
    <trip id="204" depart="58.00" from="-31101402#15" to="-66531376#7"/>
    <trip id="205" depart="58.00" from="55210624#5" to="67988112#2"/>
    <trip id="206" depart="58.00" from="240317094#4" to="65410840#1"/>
    <trip id="207" depart="58.00" from="55302511#0" to="372620143"/>
    <trip id="208" depart="59.00" from="-55211163#0" to="26714985#11"/>
    <trip id="209" depart="59.00" from="66528800#0" to="35824444#3"/>
    <trip id="210" depart="60.00" from="26715570#4" to="-25341990#0"/>
    <trip id="211" depart="60.00" from="-55200101" to="-65399986"/>
    <trip id="212" depart="61.00" from="70690286#1" to="-65409591#6"/>
    <trip id="213" depart="61.00" from="-65409600#8" to="24152761#2"/>
    <trip id="214" depart="61.00" from="-52113245#1" to="-70988928"/>
    <trip id="215" depart="62.00" from="-68083177" to="65397238#1"/>
    <trip id="216" depart="62.00" from="-55200078#2" to="178086277"/>
    <trip id="217" depart="62.00" from="339528563#1" to="-55302525#0"/>
    <trip id="218" depart="62.00" from="70734002" to="55304102"/>
    <trip id="219" depart="62.00" from="36127804#4" to="-66749632#0"/>
    <trip id="220" depart="62.00" from="55308637#0" to="70011067"/>
    <trip id="221" depart="62.00" from="67988128#2" to="-26715946#1"/>
    <trip id="222" depart="63.00" from="68077757#1" to="-55199482#0"/>
    <trip id="223" depart="63.00" from="4082952#7" to="52113254"/>
    <trip id="224" depart="63.00" from="-70877262" to="-70011077#0"/>
    <trip id="225" depart="63.00" from="-34588153#0" to="36408598#7"/>
    <trip id="226" depart="63.00" from="-99033489#3" to="-68048265"/>
    <trip id="227" depart="63.00" from="130905039#3" to="-36895487#5"/>
    <trip id="228" depart="64.00" from="89715928" to="-26714857#5"/>
    <trip id="229" depart="64.00" from="4082958#0" to="-238910507#1"/>
    <trip id="230" depart="64.00" from="-58711657#1" to="55200095#0"/>
    <trip id="231" depart="64.00" from="-68002178" to="26715593#2"/>
    <trip id="232" depart="64.00" from="66723717#6" to="26714212"/>
    <trip id="233" depart="65.00" from="51984528#0" to="273566184"/>
    <trip id="234" depart="66.00" from="-68083879" to="-65410828"/>
    <trip id="235" depart="66.00" from="-68002177#3" to="25342522#15"/>
    <trip id="236" depart="66.00" from="-26714204" to="51984545#1"/>
    <trip id="237" depart="66.00" from="68061246#3" to="65397243#4"/>
    <trip id="238" depart="66.00" from="-30684859#0" to="-52035132#2"/>
    <trip id="239" depart="67.00" from="-68077757#0" to="-65410482#0"/>
    <trip id="240" depart="67.00" from="-68081473" to="19528924#1"/>
    <trip id="241" depart="67.00" from="-66376466#0" to="-58711657#1"/>
    <trip id="242" depart="67.00" from="389622366" to="-26714838"/>
    <trip id="243" depart="68.00" from="24152809#0" to="67988102#2"/>
    <trip id="244" depart="69.00" from="65411666#0" to="66528778"/>
    <trip id="245" depart="69.00" from="-65411691" to="25788669#6"/>
    <trip id="246" depart="70.00" from="-66528826#3" to="68083881#1"/>
    <trip id="247" depart="70.00" from="-36127754" to="-66533785"/>
    <trip id="248" depart="70.00" from="-126137534#5" to="-36157119"/>
    <trip id="249" depart="70.00" from="238911343" to="-66531322#0"/>
    <trip id="250" depart="70.00" from="-55305588#2" to="166527668"/>
    <trip id="251" depart="71.00" from="70906285#2" to="139308560#0"/>
    <trip id="252" depart="71.00" from="-68083882" to="68048283#5"/>
    <trip id="253" depart="71.00" from="4589345#1" to="-372620153#2"/>
    <trip id="254" depart="71.00" from="26714812#3" to="-25342522#3"/>
    <trip id="255" depart="72.00" from="68053602#1" to="52102594#0"/>
    <trip id="256" depart="72.00" from="-26715705#3" to="66158677#1"/>
    <trip id="257" depart="72.00" from="66739500#1" to="-70001104"/>
    <trip id="258" depart="72.00" from="66097377#4" to="70733979"/>
    <trip id="259" depart="72.00" from="176383519" to="-25342411#10"/>
    <trip id="260" depart="72.00" from="99365364#1" to="30986876#7"/>
    <trip id="261" depart="73.00" from="70733971#2" to="55211164#1"/>
    <trip id="262" depart="73.00" from="-66158694#2" to="-55200089#2"/>
    <trip id="263" depart="73.00" from="-66158705#2" to="-126137535#19"/>
    <trip id="264" depart="74.00" from="-101809025#11" to="26715263#1"/>
    <trip id="265" depart="75.00" from="-26715710#5" to="-68077731#3"/>
    <trip id="266" depart="76.00" from="67991933#0" to="65409591#11"/>
    <trip id="267" depart="76.00" from="-52102590#1" to="70690214#0"/>
    <trip id="268" depart="76.00" from="55211167" to="-55200093#1"/>
    <trip id="269" depart="76.00" from="68081421#0" to="67988130"/>
    <trip id="270" depart="77.00" from="253076310#0" to="-55304140#1"/>
    <trip id="271" depart="77.00" from="-66158679#1" to="68077769"/>
    <trip id="272" depart="77.00" from="66536020#0" to="36127789#3"/>
    <trip id="273" depart="78.00" from="-36922350#1" to="36408642#7"/>
    <trip id="274" depart="78.00" from="-36127757" to="-70008371#2"/>
    <trip id="275" depart="78.00" from="-126137534#5" to="25788669#6"/>
    <trip id="276" depart="78.00" from="68083883#1" to="26714310#3"/>
    <trip id="277" depart="79.00" from="37049014#1" to="8295406#3"/>
    <trip id="278" depart="79.00" from="255917143" to="65409600#3"/>
    <trip id="279" depart="79.00" from="-66752650#0" to="-66528772#1"/>
    <trip id="280" depart="79.00" from="-70733930#8" to="68002175#0"/>
    <trip id="281" depart="79.00" from="68077769" to="65397243#1"/>
    <trip id="282" depart="80.00" from="-70708476#1" to="66158686#0"/>
    <trip id="283" depart="80.00" from="-26714486#0" to="-62328589#0"/>
    <trip id="284" depart="80.00" from="66376479#1" to="66742398"/>
    <trip id="285" depart="80.00" from="-26715891#8" to="70734087#0"/>
    <trip id="286" depart="80.00" from="-36127794#5" to="-67990593"/>
    <trip id="287" depart="80.00" from="-70724078#1" to="-66158697#0"/>
    <trip id="288" depart="81.00" from="26714929#3" to="423350276#0"/>
    <trip id="289" depart="81.00" from="55302496#2" to="176387107#2"/>
    <trip id="290" depart="82.00" from="65410832" to="66723723#0"/>
    <trip id="291" depart="82.00" from="-66531322#0" to="-66097358#0"/>
    <trip id="292" depart="82.00" from="-66158689" to="66536024#0"/>
    <trip id="293" depart="82.00" from="-75538808" to="-26715891#0"/>
    <trip id="294" depart="82.00" from="-70001010" to="73028022"/>
    <trip id="295" depart="82.00" from="-25788902#7" to="-67988110"/>
    <trip id="296" depart="82.00" from="70724105" to="-68083883#4"/>
    <trip id="297" depart="83.00" from="66158705#1" to="139975826"/>
    <trip id="298" depart="83.00" from="26714985#5" to="-66736830"/>
    <trip id="299" depart="83.00" from="-55210354#2" to="-70708566#0"/>
    <trip id="300" depart="83.00" from="4589343#1" to="-99033489#3"/>
    <trip id="301" depart="84.00" from="-70011056" to="75538809#1"/>
    <trip id="302" depart="85.00" from="68077731#0" to="-65410847"/>
    <trip id="303" depart="85.00" from="-67991954#1" to="68077731#3"/>
    <trip id="304" depart="85.00" from="26709941#0" to="68081427"/>
    <trip id="305" depart="86.00" from="29898101" to="65411671#0"/>
    <trip id="306" depart="86.00" from="-66744990" to="70734131#0"/>
    <trip id="307" depart="86.00" from="-26714837" to="-26715565"/>
    <trip id="308" depart="86.00" from="99367047#3" to="-36895539"/>
    <trip id="309" depart="87.00" from="-66742414#3" to="-26714310#8"/>
    <trip id="310" depart="87.00" from="-70904241#0" to="-68077727#1"/>
    <trip id="311" depart="88.00" from="-67989233#0" to="-70001012"/>
    <trip id="312" depart="88.00" from="-67989225" to="55305604#0"/>
    <trip id="313" depart="88.00" from="-205090640#3" to="55210624#1"/>
    <trip id="314" depart="89.00" from="26714953#2" to="-65411678#3"/>
    <trip id="315" depart="89.00" from="139315341" to="-51984527#2"/>
    <trip id="316" depart="89.00" from="-97715965#1" to="-66736825#1"/>
    <trip id="317" depart="89.00" from="66748813#1" to="-66166997"/>
    <trip id="318" depart="90.00" from="190811516#0" to="-70997856#1"/>
    <trip id="319" depart="90.00" from="-66528801#3" to="31427954"/>
    <trip id="320" depart="91.00" from="377962487#1" to="-66097373#1"/>
    <trip id="321" depart="92.00" from="-154121331" to="-70011085"/>
    <trip id="322" depart="92.00" from="-29898105#3" to="-35822075#0"/>
    <trip id="323" depart="92.00" from="-25342465#1" to="68084636"/>
    <trip id="324" depart="92.00" from="-8042931#8" to="-318212460"/>
    <trip id="325" depart="92.00" from="26714776#0" to="-55308625#0"/>
    <trip id="326" depart="93.00" from="25342550#0" to="66531366#1"/>
    <trip id="327" depart="93.00" from="-139887102#1" to="-66158697#2"/>
    <trip id="328" depart="94.00" from="70877274#0" to="-70994787#8"/>
    <trip id="329" depart="95.00" from="25342464#4" to="67996890"/>
    <trip id="330" depart="95.00" from="26714689#3" to="-65400736#0"/>
    <trip id="331" depart="95.00" from="26715695#8" to="66736823#1"/>
    <trip id="332" depart="96.00" from="19528857" to="66376451#0"/>
    <trip id="333" depart="97.00" from="-66749632#2" to="256502197#2"/>
    <trip id="334" depart="97.00" from="249171399#4" to="142613036#1"/>
    <trip id="335" depart="97.00" from="55210345#0" to="36895508#0"/>
    <trip id="336" depart="98.00" from="-66749634" to="-26714985#15"/>
    <trip id="337" depart="99.00" from="-55305576#1" to="-52098069#0"/>
    <trip id="338" depart="99.00" from="8602873#3" to="-66531391"/>
    <trip id="339" depart="99.00" from="4082952#5" to="-35822073#1"/>
    <trip id="340" depart="99.00" from="517081966#1" to="68084650"/>
    <trip id="341" depart="100.00" from="-26713941#1" to="65409591#10"/>
    <trip id="342" depart="100.00" from="65410856" to="99033489#9"/>
    <trip id="343" depart="100.00" from="-26714870" to="26714954#0"/>
    <trip id="344" depart="101.00" from="126137524#0" to="415375703"/>
    <trip id="345" depart="101.00" from="55302499#1" to="70733928#0"/>
    <trip id="346" depart="101.00" from="-36157058" to="-52113264#0"/>
    <trip id="347" depart="101.00" from="373404265#4" to="68051952"/>
    <trip id="348" depart="102.00" from="51984535#0" to="-66736839#0"/>
    <trip id="349" depart="102.00" from="-65411959" to="-26714057"/>
    <trip id="350" depart="102.00" from="66742413#0" to="-66528822"/>
    <trip id="351" depart="102.00" from="4082958#1" to="-52102591#0"/>
    <trip id="352" depart="102.00" from="-26714812#3" to="-8042931#5"/>
    <trip id="353" depart="102.00" from="4082952#5" to="25841264#2"/>
    <trip id="354" depart="103.00" from="65411957" to="-55305588#0"/>
    <trip id="355" depart="103.00" from="35822075#0" to="-66748790#1"/>
    <trip id="356" depart="103.00" from="70906269" to="36127804#3"/>
    <trip id="357" depart="103.00" from="70708560#2" to="68084776"/>
    <trip id="358" depart="103.00" from="66744616" to="-26714486#0"/>
    <trip id="359" depart="103.00" from="66736817" to="65411687#1"/>
    <trip id="360" depart="104.00" from="68048283#3" to="26714496#1"/>
    <trip id="361" depart="104.00" from="-26637939#0" to="68061254#1"/>
    <trip id="362" depart="104.00" from="26477568#2" to="499640908#0"/>
    <trip id="363" depart="104.00" from="67996904#0" to="70708428#0"/>
    <trip id="364" depart="104.00" from="68051968" to="52113256"/>
    <trip id="365" depart="105.00" from="-55179337#5" to="68077749"/>
    <trip id="366" depart="105.00" from="-66376439" to="408449075"/>
    <trip id="367" depart="105.00" from="-35822084#1" to="70906285#1"/>
    <trip id="368" depart="105.00" from="26709898#0" to="26714938"/>
    <trip id="369" depart="105.00" from="26714780#3" to="35822071#2"/>
    <trip id="370" depart="105.00" from="26714985#5" to="52106422"/>
    <trip id="371" depart="107.00" from="-99743078#4" to="-55199477"/>
    <trip id="372" depart="107.00" from="66531369#5" to="180611854#0"/>
    <trip id="373" depart="107.00" from="-36127750#0" to="-52157229"/>
    <trip id="374" depart="107.00" from="36127764#0" to="-51984538"/>
    <trip id="375" depart="108.00" from="-176593425#5" to="-52113245#2"/>
    <trip id="376" depart="108.00" from="-55302536#2" to="-26714789#1"/>
    <trip id="377" depart="108.00" from="68083168" to="52113261#2"/>
    <trip id="378" depart="108.00" from="66732275" to="-67990591"/>
    <trip id="379" depart="108.00" from="67988110" to="-66531291#3"/>
    <trip id="380" depart="108.00" from="68077801#3" to="66158695"/>
    <trip id="381" depart="108.00" from="-139975629#2" to="36127784"/>
    <trip id="382" depart="109.00" from="255916847#0" to="-148945750"/>
    <trip id="383" depart="109.00" from="139887102#0" to="-55199467"/>
    <trip id="384" depart="109.00" from="-66736782#1" to="26714728#1"/>
    <trip id="385" depart="110.00" from="153449829" to="67996909#1"/>
    <trip id="386" depart="110.00" from="66736833" to="-31101402#14"/>
    <trip id="387" depart="111.00" from="487410644" to="-66739503#0"/>
    <trip id="388" depart="111.00" from="-559919637#11" to="66528781#0"/>
    <trip id="389" depart="112.00" from="70733932#0" to="99036307#0"/>
    <trip id="390" depart="112.00" from="-68084777#1" to="66531366#3"/>
    <trip id="391" depart="112.00" from="-70896279#0" to="-8295406#1"/>
    <trip id="392" depart="112.00" from="-68051935#1" to="25788772#8"/>
    <trip id="393" depart="112.00" from="-55210624#1" to="68081471#0"/>
    <trip id="394" depart="112.00" from="157165200-AddedOnRampEdge" to="-55211169#0"/>
    <trip id="395" depart="113.00" from="-67988133#0" to="-66742423"/>
    <trip id="396" depart="113.00" from="-66742450#1" to="75538808"/>
    <trip id="397" depart="113.00" from="99365364#1" to="-52098074"/>
    <trip id="398" depart="113.00" from="-26709835#2" to="70906253"/>
    <trip id="399" depart="113.00" from="178135255#0" to="-36127755#2"/>
    <trip id="400" depart="113.00" from="36127750#4" to="66158702#0"/>
    <trip id="401" depart="114.00" from="65400731#1" to="55302529"/>
    <trip id="402" depart="114.00" from="-1096109#2" to="66533788#1"/>
    <trip id="403" depart="114.00" from="110273473#0" to="-26715740#0"/>
    <trip id="404" depart="115.00" from="52035133" to="24152920#4"/>
    <trip id="405" depart="115.00" from="-66158677#0" to="-154121314#0"/>
    <trip id="406" depart="116.00" from="26714781#0" to="26714260"/>
    <trip id="407" depart="116.00" from="-70734011" to="-70877270#5"/>
    <trip id="408" depart="116.00" from="-99743078#3" to="-70877267#1"/>
    <trip id="409" depart="116.00" from="4082958#2" to="-68081453#5"/>
    <trip id="410" depart="117.00" from="176593421#0" to="-36127750#1"/>
    <trip id="411" depart="118.00" from="55199470#1" to="25723954#1"/>
    <trip id="412" depart="119.00" from="-55210353" to="66752650#1"/>
    <trip id="413" depart="119.00" from="-26714989#5" to="66528808#0"/>
    <trip id="414" depart="120.00" from="-139896526#2" to="-70906269"/>
    <trip id="415" depart="120.00" from="-70733935#1" to="52106421#6"/>
    <trip id="416" depart="120.00" from="70989061#2" to="-70008154"/>
    <trip id="417" depart="120.00" from="25342009#3" to="70690103"/>
    <trip id="418" depart="121.00" from="26714273#1" to="-110273457#2"/>
    <trip id="419" depart="121.00" from="65410827" to="-176383521#1"/>
    <trip id="420" depart="122.00" from="-224923661#0" to="-26714985#7"/>
    <trip id="421" depart="122.00" from="68081449" to="-55302499#1"/>