<?xml version="1.0" encoding="UTF-8"?>
<!-- generated on 2018-05-09 03:06:46.821762 by $Id$
  options: -n newark_square.net.xml -e 1000 <doubleminus>fringe-factor 10e+100 <doubleminus>period 0.1 <doubleminus>binomial 30 <doubleminus>route-file routes_newark.xml
-->
<routes xmlns:xsi="http://www.w3.org/2001/XMLSchema-instance" xsi:noNamespaceSchemaLocation="http://sumo.dlr.de/xsd/routes_file.xsd">
    <trip id="0" depart="0.00" from="422528959#1" to="-421351654#0"/>
    <trip id="1" depart="0.00" from="11618746" to="49200112"/>
    <trip id="2" depart="0.00" from="-358952990" to="11622416"/>
    <trip id="3" depart="0.00" from="-11619717" to="11619881"/>
    <trip id="4" depart="0.00" from="-11621970" to="262807631#7"/>
    <trip id="5" depart="0.00" from="224940678#0" to="422874559"/>
    <trip id="6" depart="0.00" from="27829500" to="38312390"/>
    <trip id="7" depart="0.00" from="28274780#2" to="11620575#6"/>
    <trip id="8" depart="0.00" from="-572297853" to="132500885#0"/>
    <trip id="9" depart="1.00" from="-11619130" to="11620527"/>
    <trip id="10" depart="1.00" from="11623782" to="11624579#3"/>
    <trip id="11" depart="1.00" from="11621593" to="-61671712#0"/>
    <trip id="12" depart="1.00" from="195846218" to="425442682#8"/>
    <trip id="13" depart="1.00" from="49200100" to="11621420#3"/>
    <trip id="14" depart="1.00" from="49200100" to="-27827473#0"/>
    <trip id="15" depart="1.00" from="11620723#1" to="11618609"/>
    <trip id="16" depart="1.00" from="-60787970#2" to="46962415"/>
    <trip id="17" depart="1.00" from="28274780#2" to="-11620217#0"/>
    <trip id="18" depart="2.00" from="-358952990" to="11617336"/>
    <trip id="19" depart="2.00" from="-11617099" to="11624727"/>
    <trip id="20" depart="2.00" from="11622256#0" to="56054062#0"/>
    <trip id="21" depart="2.00" from="-11620726" to="511747897"/>
    <trip id="22" depart="2.00" from="-422874559" to="422874559"/>
    <trip id="23" depart="2.00" from="-11621857" to="11619496#6"/>
    <trip id="24" depart="2.00" from="-11618063#2" to="11622256#1"/>
    <trip id="25" depart="2.00" from="-256942032#1" to="11621844"/>
    <trip id="26" depart="3.00" from="-11619381.628" to="274863882#2"/>
    <trip id="27" depart="3.00" from="-11624809" to="425408799"/>
    <trip id="28" depart="3.00" from="-11621541#1" to="346923272#0"/>
    <trip id="29" depart="3.00" from="11620136#0" to="11620217#1"/>
    <trip id="30" depart="3.00" from="11623825#0" to="11621548"/>
    <trip id="31" depart="3.00" from="11620880#0" to="-11624369#0"/>
    <trip id="32" depart="3.00" from="-11617099" to="46965799#10"/>
    <trip id="33" depart="3.00" from="-11622256#1" to="11624809"/>
    <trip id="34" depart="4.00" from="-11620492#1" to="11621549"/>
    <trip id="35" depart="4.00" from="-11619713#7.246" to="11621420#3"/>
    <trip id="36" depart="4.00" from="422529567#0" to="-11625052"/>
    <trip id="37" depart="4.00" from="262807635.145" to="11619367#6"/>
    <trip id="38" depart="4.00" from="-11623283#5" to="-11620163"/>
    <trip id="39" depart="4.00" from="60787555" to="11621548"/>
    <trip id="40" depart="4.00" from="-11618715" to="11621372"/>
    <trip id="41" depart="4.00" from="-351451186" to="11618455"/>
    <trip id="42" depart="4.00" from="11620217#0" to="28885893#3"/>
    <trip id="43" depart="4.00" from="-11620575#6" to="11618715"/>
    <trip id="44" depart="4.00" from="-224940712#4" to="11624809"/>
    <trip id="45" depart="4.00" from="-11618715" to="-11620217#0"/>
    <trip id="46" depart="4.00" from="-422534132#3" to="-11620837"/>
    <trip id="47" depart="4.00" from="-11621844" to="11618580"/>
    <trip id="48" depart="4.00" from="11620163" to="230388293#5"/>
    <trip id="49" depart="5.00" from="60787555" to="511747897"/>
    <trip id="50" depart="5.00" from="261719103" to="-11614975#0"/>
    <trip id="51" depart="5.00" from="-11621096" to="11621420#3"/>
    <trip id="52" depart="5.00" from="-11621548" to="358952990"/>
    <trip id="53" depart="5.00" from="-11619713#7.246" to="-11624579#0"/>
    <trip id="54" depart="5.00" from="-11620217#1" to="11623854#1"/>
    <trip id="55" depart="5.00" from="11623825#0" to="11623498"/>
    <trip id="56" depart="5.00" from="416681463" to="261719105"/>
    <trip id="57" depart="5.00" from="-60785883#6" to="11617336"/>
    <trip id="58" depart="5.00" from="11624781" to="-261719103"/>
    <trip id="59" depart="5.00" from="-11620726" to="422534132#3"/>
    <trip id="60" depart="5.00" from="-46962415" to="-416681463"/>
    <trip id="61" depart="5.00" from="61671707#0" to="-11623782"/>
    <trip id="62" depart="5.00" from="-425195349#6" to="230388293#5"/>
    <trip id="63" depart="6.00" from="11618827#0" to="11618066#3"/>
    <trip id="64" depart="6.00" from="-11613734#7" to="425442682#8"/>
    <trip id="65" depart="6.00" from="-346657923" to="-61671701#0"/>
    <trip id="66" depart="6.00" from="-346923275#1" to="422529567#7"/>
    <trip id="67" depart="6.00" from="-11617099" to="195846222#7"/>
    <trip id="68" depart="6.00" from="-422529567#7" to="-11617959"/>
    <trip id="69" depart="6.00" from="-576298426" to="230388293#5"/>
    <trip id="70" depart="6.00" from="61671707#0" to="11619460"/>
    <trip id="71" depart="6.00" from="-132500885#1" to="11621549"/>
    <trip id="72" depart="6.00" from="422514772#3" to="-11624369#0"/>
    <trip id="73" depart="6.00" from="-11617072#2" to="27829387#4"/>
    <trip id="74" depart="6.00" from="11623782" to="11623498"/>
    <trip id="75" depart="7.00" from="-357233525" to="49200112"/>
    <trip id="76" depart="7.00" from="11624526#0" to="357233525"/>
    <trip id="77" depart="7.00" from="-261713328#2" to="-11617851"/>
    <trip id="78" depart="7.00" from="49200053" to="11622198#1"/>
    <trip id="79" depart="7.00" from="11618230#0" to="11617905#0"/>
    <trip id="80" depart="7.00" from="-11621458" to="-416681463"/>
    <trip id="81" depart="7.00" from="-11617099" to="11624104#1"/>
    <trip id="82" depart="8.00" from="11616496" to="-11621593"/>
    <trip id="83" depart="8.00" from="-11624798" to="-11620217#0"/>
    <trip id="84" depart="8.00" from="-11616731#1" to="-11624029"/>
    <trip id="85" depart="8.00" from="-426412565#4" to="-11624369#0"/>
    <trip id="86" depart="8.00" from="-262807522#2" to="11617099"/>
    <trip id="87" depart="8.00" from="-11620492#1" to="49200112"/>
    <trip id="88" depart="8.00" from="11622256#0" to="-60787965#0"/>
    <trip id="89" depart="8.00" from="-11614336" to="11621549"/>
    <trip id="90" depart="8.00" from="-11615292#2" to="11622092#3"/>
    <trip id="91" depart="8.00" from="-11617072#2" to="11619881"/>
    <trip id="92" depart="8.00" from="-230388293#5" to="26561356#2"/>
    <trip id="93" depart="9.00" from="-60785882#6" to="268206344#1"/>
    <trip id="94" depart="9.00" from="261719101" to="-11621593"/>
    <trip id="95" depart="9.00" from="-511747897" to="11620047#0"/>
    <trip id="96" depart="9.00" from="-11622315" to="-11624781"/>
    <trip id="97" depart="9.00" from="-11618508#2" to="423204799#3"/>
    <trip id="98" depart="9.00" from="11619196#0" to="11617148#5"/>
    <trip id="99" depart="9.00" from="-11622071#1" to="358952990"/>
    <trip id="100" depart="9.00" from="11616496" to="11618345"/>
    <trip id="101" depart="9.00" from="-11621452#7" to="11624809"/>
    <trip id="102" depart="9.00" from="27398149" to="38312548"/>
    <trip id="103" depart="9.00" from="-11618066#3" to="11619717"/>
    <trip id="104" depart="9.00" from="-11618827#1" to="-11624029"/>
    <trip id="105" depart="10.00" from="60787555" to="423501578#3"/>
    <trip id="106" depart="10.00" from="-132500885#1" to="11615292#2"/>
    <trip id="107" depart="10.00" from="11624781" to="11623498"/>
    <trip id="108" depart="10.00" from="11624029" to="-11621047#3"/>
    <trip id="109" depart="10.00" from="-11618715" to="11619405#2"/>
    <trip id="110" depart="10.00" from="415459430#0" to="60785882#6"/>
    <trip id="111" depart="10.00" from="-60787558#5" to="422529567#7"/>
    <trip id="112" depart="10.00" from="-11624798" to="11618827#1"/>
    <trip id="113" depart="10.00" from="-11619357" to="262807715#6"/>
    <trip id="114" depart="10.00" from="-359399607" to="-256664450"/>
    <trip id="115" depart="10.00" from="49199993" to="-224940678#0"/>
    <trip id="116" depart="11.00" from="-423204799#3.1029" to="11622728"/>
    <trip id="117" depart="11.00" from="-346923274" to="27239078#6"/>
    <trip id="118" depart="11.00" from="-46965481#3.901" to="11622416"/>
    <trip id="119" depart="11.00" from="11620217#0" to="-60787555"/>
    <trip id="120" depart="11.00" from="-262807631#7" to="11622416"/>
    <trip id="121" depart="11.00" from="262807556#0" to="-11622682#0"/>
    <trip id="122" depart="11.00" from="-11614336" to="38312390"/>
    <trip id="123" depart="12.00" from="422514772#3" to="-421373641"/>
    <trip id="124" depart="12.00" from="261719101" to="-60785883#0"/>
    <trip id="125" depart="12.00" from="-11622730#2" to="-60787965#0"/>
    <trip id="126" depart="12.00" from="-11617566" to="351451186"/>
    <trip id="127" depart="12.00" from="28274780#2" to="11621857"/>
    <trip id="128" depart="12.00" from="422514772#3" to="-11618746"/>
    <trip id="129" depart="12.00" from="268206248#0" to="11619460"/>
    <trip id="130" depart="12.00" from="-11621548" to="11619381"/>
    <trip id="131" depart="12.00" from="-54672534" to="261719105"/>
    <trip id="132" depart="12.00" from="-346657923" to="60785883#6"/>
    <trip id="133" depart="12.00" from="-11617358#6" to="11622256#1"/>
    <trip id="134" depart="12.00" from="-11624780#1" to="11622256#1"/>
    <trip id="135" depart="12.00" from="-576298425" to="-261713325"/>
    <trip id="136" depart="13.00" from="-11624798" to="11620417"/>
    <trip id="137" depart="13.00" from="195846214" to="46965799#10"/>
    <trip id="138" depart="13.00" from="-11618508#2" to="11615292#2"/>
    <trip id="139" depart="13.00" from="11615252#0" to="-11621047#3"/>
    <trip id="140" depart="13.00" from="-11622966" to="54671929#1"/>
    <trip id="141" depart="13.00" from="-28885893#3" to="11620210"/>
    <trip id="142" depart="13.00" from="422529567#0" to="11622966"/>
    <trip id="143" depart="13.00" from="-424845544#4" to="-27827471#0"/>
    <trip id="144" depart="13.00" from="46965570" to="11617905#0"/>
    <trip id="145" depart="13.00" from="11624526#0" to="295017255"/>
    <trip id="146" depart="14.00" from="-11622414#7" to="11618066#3"/>
    <trip id="147" depart="14.00" from="11625052" to="11621420#3"/>
    <trip id="148" depart="14.00" from="261719103" to="-421305945#0"/>
    <trip id="149" depart="14.00" from="-11622416" to="11622315"/>
    <trip id="150" depart="14.00" from="-11618508#2" to="422534132#3"/>
    <trip id="151" depart="14.00" from="11620136#0" to="11621452#7"/>
    <trip id="152" depart="14.00" from="261719101" to="11622198#1"/>
    <trip id="153" depart="14.00" from="27827481#0" to="-415459430#0"/>
    <trip id="154" depart="14.00" from="261719101" to="-11623371#0"/>
    <trip id="155" depart="14.00" from="-60787558#5" to="11619381"/>
    <trip id="156" depart="14.00" from="-11622256#1" to="11618455"/>
    <trip id="157" depart="15.00" from="11623478" to="26561356#2"/>
    <trip id="158" depart="15.00" from="-11622730#2" to="11617099"/>
    <trip id="159" depart="15.00" from="60787965#0" to="11622256#1"/>
    <trip id="160" depart="15.00" from="422709488" to="11624104#1"/>
    <trip id="161" depart="15.00" from="61671701#0" to="346923276"/>
    <trip id="162" depart="15.00" from="32334434#0.2011" to="357233525"/>
    <trip id="163" depart="15.00" from="-11625060" to="11621458"/>
    <trip id="164" depart="15.00" from="32334434#0.2011" to="-11624781"/>
    <trip id="165" depart="15.00" from="27827481#0" to="-61671712#0"/>
    <trip id="166" depart="15.00" from="-11622307#3" to="11615292#2"/>
    <trip id="167" depart="16.00" from="-576298425" to="-422529567#0"/>
    <trip id="168" depart="16.00" from="-11622315" to="-11620163"/>
    <trip id="169" depart="16.00" from="11615252#0" to="11624858#2"/>
    <trip id="170" depart="16.00" from="-11621541#1" to="54671929#1"/>
    <trip id="171" depart="16.00" from="422528959#1" to="11624750#6"/>
    <trip id="172" depart="16.00" from="-60785882#6" to="27263703"/>
    <trip id="173" depart="16.00" from="11624983#1" to="-416681463"/>
    <trip id="174" depart="16.00" from="-268206344#1" to="-11624029"/>
    <trip id="175" depart="16.00" from="11620217#0" to="11624858#2"/>
    <trip id="176" depart="17.00" from="-11619717" to="-60785883#0"/>
    <trip id="177" depart="17.00" from="-346923275#1" to="425442682#8"/>
    <trip id="178" depart="17.00" from="-346923271" to="295017255"/>
    <trip id="179" depart="17.00" from="-132500885#1" to="-261715208#0"/>
    <trip id="180" depart="17.00" from="-425408799" to="262807715#6"/>
    <trip id="181" depart="17.00" from="11621593" to="-27827473#0"/>
    <trip id="182" depart="17.00" from="11615252#0" to="11621452#7"/>
    <trip id="183" depart="17.00" from="-11618609" to="511747899#1"/>
    <trip id="184" depart="17.00" from="-576298426" to="-61671712#0"/>
    <trip id="185" depart="17.00" from="27827471#0" to="11619717"/>
    <trip id="186" depart="18.00" from="-295017255" to="60785883#6"/>
    <trip id="187" depart="18.00" from="11619506#0" to="-11615252#0"/>
    <trip id="188" depart="18.00" from="11621593" to="49200112"/>
    <trip id="189" depart="18.00" from="-11617072#2" to="60785882#6"/>
    <trip id="190" depart="18.00" from="-11623644#6" to="11621844"/>
    <trip id="191" depart="18.00" from="-262807522#2" to="11620431#1"/>
    <trip id="192" depart="19.00" from="-346923278" to="11621549"/>
    <trip id="193" depart="19.00" from="11624579#0" to="11616731#1"/>
    <trip id="194" depart="19.00" from="-346923271" to="11623702#4"/>
    <trip id="195" depart="19.00" from="-425442685#1" to="11621970"/>
    <trip id="196" depart="19.00" from="-295017255" to="274863882#2"/>
    <trip id="197" depart="19.00" from="-423501578#3" to="-421305945#0"/>
    <trip id="198" depart="19.00" from="27827471#0" to="-60785883#0"/>
    <trip id="199" depart="19.00" from="49200110" to="353008483"/>
    <trip id="200" depart="20.00" from="-11617072#2" to="11624104#1"/>
    <trip id="201" depart="20.00" from="11618202#1" to="-11623371#0"/>
    <trip id="202" depart="20.00" from="60810963" to="11623854#1"/>
    <trip id="203" depart="20.00" from="-11622071#1" to="11617799#4"/>
    <trip id="204" depart="20.00" from="-576298426" to="11619881"/>
    <trip id="205" depart="20.00" from="60787559#0" to="-11624119"/>
    <trip id="206" depart="20.00" from="-11622730#2" to="-256664450"/>
    <trip id="207" depart="20.00" from="-11613734#7" to="256942032#0"/>
    <trip id="208" depart="21.00" from="61671712#0" to="-28274780#2"/>
    <trip id="209" depart="21.00" from="11619506#0" to="-11624781"/>
    <trip id="210" depart="21.00" from="11622682#0" to="11625060"/>
    <trip id="211" depart="21.00" from="-60787558#5" to="423502009#12"/>
    <trip id="212" depart="21.00" from="-60785883#6" to="-11624369#0"/>
    <trip id="213" depart="21.00" from="-11621372" to="54672534"/>
    <trip id="214" depart="21.00" from="-11613734#7" to="11624579#3"/>
    <trip id="215" depart="21.00" from="11619506#0" to="261719105"/>
    <trip id="216" depart="21.00" from="-11618508#2" to="261719105"/>
    <trip id="217" depart="22.00" from="-28929125#9" to="353008483"/>
    <trip id="218" depart="22.00" from="-11622198#1" to="11618345"/>
    <trip id="219" depart="22.00" from="11620217#0" to="422709491"/>
    <trip id="220" depart="22.00" from="-11622307#3" to="11622315"/>
    <trip id="221" depart="22.00" from="11624119" to="60785882#6"/>
    <trip id="222" depart="22.00" from="-423502009#12" to="27239078#6"/>
    <trip id="223" depart="22.00" from="-11617358#6" to="-195846214"/>
    <trip id="224" depart="22.00" from="-11619357" to="346923274"/>
    <trip id="225" depart="22.00" from="-426412565#4" to="-46965570"/>
    <trip id="226" depart="22.00" from="-422874559" to="11619381"/>
    <trip id="227" depart="22.00" from="11624526#0" to="28929125#9"/>
    <trip id="228" depart="23.00" from="-60785882#6" to="27398151"/>
    <trip id="229" depart="23.00" from="11617851" to="-61671697"/>
    <trip id="230" depart="23.00" from="11622682#0" to="576298426"/>
    <trip id="231" depart="23.00" from="224940678#0" to="11620417"/>
    <trip id="232" depart="23.00" from="-346923272#2" to="11620210"/>
    <trip id="233" depart="23.00" from="421351654#0" to="274861829#2"/>
    <trip id="234" depart="23.00" from="-346923278" to="-195846218"/>
    <trip id="235" depart="23.00" from="-46965481#3.901" to="11619357"/>
    <trip id="236" depart="23.00" from="261713315" to="423738845#4"/>
    <trip id="237" depart="23.00" from="-11621458" to="11617099"/>
    <trip id="238" depart="23.00" from="60785883#0" to="11623498"/>
    <trip id="239" depart="24.00" from="-422751054#6.838" to="11617566"/>
    <trip id="240" depart="24.00" from="-11614336" to="11621096"/>
    <trip id="241" depart="24.00" from="28274780#2" to="11621970"/>
    <trip id="242" depart="24.00" from="-11617566" to="359399607"/>
    <trip id="243" depart="24.00" from="-11622966" to="-11623782"/>
    <trip id="244" depart="24.00" from="-11621548" to="11621372"/>
    <trip id="245" depart="25.00" from="-357233525" to="28929125#9"/>
    <trip id="246" depart="25.00" from="261719103" to="-261713315"/>
    <trip id="247" depart="25.00" from="11622842#0" to="572297853"/>
    <trip id="248" depart="25.00" from="-11616674#3" to="11617336"/>
    <trip id="249" depart="25.00" from="11624029" to="11614336"/>
    <trip id="250" depart="25.00" from="-576298425" to="38312548"/>
    <trip id="251" depart="25.00" from="-11617648#1" to="11614336"/>
    <trip id="252" depart="25.00" from="261713315" to="38312548"/>
    <trip id="253" depart="25.00" from="-11618508#2" to="224940686"/>
    <trip id="254" depart="26.00" from="-424845544#4" to="11613734#6"/>
    <trip id="255" depart="26.00" from="11624526#0" to="11618715"/>
    <trip id="256" depart="26.00" from="-27239078#6" to="274863882#2"/>
    <trip id="257" depart="26.00" from="-423738845#4" to="224940686"/>
    <trip id="258" depart="26.00" from="416681463" to="38312390"/>
    <trip id="259" depart="26.00" from="195846218" to="351451186"/>
    <trip id="260" depart="26.00" from="-572297853" to="-11624369#0"/>
    <trip id="261" depart="27.00" from="-11621548" to="11622414#7"/>
    <trip id="262" depart="27.00" from="-11622307#3" to="-415459430#0"/>
    <trip id="263" depart="27.00" from="60787559#0" to="274861829#2"/>
    <trip id="264" depart="27.00" from="-423738845#4" to="11622092#3"/>
    <trip id="265" depart="27.00" from="-346923274" to="224940686"/>
    <trip id="266" depart="28.00" from="11624119" to="11622730#2"/>
    <trip id="267" depart="28.00" from="11620136#0" to="-27827471#0"/>
    <trip id="268" depart="28.00" from="-11620431#1" to="-11621593"/>
    <trip id="269" depart="28.00" from="61671697" to="11617759#1"/>
    <trip id="270" depart="28.00" from="-11622071#1" to="11617148#5"/>
    <trip id="271" depart="28.00" from="11623825#0" to="11622092#3"/>
    <trip id="272" depart="28.00" from="-11624780#1" to="11620726"/>
    <trip id="273" depart="28.00" from="-425195349#6" to="423204799#3"/>
    <trip id="274" depart="28.00" from="11624781" to="-256664450"/>
    <trip id="275" depart="28.00" from="-11618508#2" to="11623702#4"/>
    <trip id="276" depart="28.00" from="-11620527" to="224940657"/>
    <trip id="277" depart="29.00" from="46965570" to="261719096"/>
    <trip id="278" depart="29.00" from="421305945#0" to="-261719101"/>
    <trip id="279" depart="29.00" from="-11620417" to="11621372"/>
    <trip id="280" depart="29.00" from="27827473#0" to="-11616496"/>
    <trip id="281" depart="29.00" from="422520810#0.695" to="28929125#9"/>
    <trip id="282" depart="29.00" from="-11623413" to="11619367#6"/>
    <trip id="283" depart="29.00" from="-11621857" to="11622315"/>
    <trip id="284" depart="29.00" from="32334434#0.2011" to="11620047#0"/>
    <trip id="285" depart="29.00" from="-11622730#2" to="-261713325"/>
    <trip id="286" depart="29.00" from="60810963" to="-261719103"/>
    <trip id="287" depart="29.00" from="11618202#1" to="-11622256#0"/>
    <trip id="288" depart="29.00" from="-11622315" to="11622071#1"/>
    <trip id="289" depart="30.00" from="-27239078#6" to="49200112"/>
    <trip id="290" depart="30.00" from="27827471#0" to="11622639#1"/>
    <trip id="291" depart="30.00" from="-11621372" to="11624727"/>
    <trip id="292" depart="30.00" from="-424845544#4" to="11618580"/>
    <trip id="293" depart="30.00" from="-60787558#5" to="11617072#2"/>
    <trip id="294" depart="30.00" from="422529567#0" to="274861829#2"/>
    <trip id="295" depart="30.00" from="-511747897" to="421351654#4"/>
    <trip id="296" depart="30.00" from="11618746" to="11620575#6"/>
    <trip id="297" depart="30.00" from="-11618063#2" to="11621096"/>
    <trip id="298" depart="30.00" from="-11622071#1" to="11618345"/>
    <trip id="299" depart="30.00" from="-511747897" to="423261719#1"/>
    <trip id="300" depart="30.00" from="-11620056#4" to="424845544#4"/>
    <trip id="301" depart="31.00" from="262807556#0" to="-11618827#0"/>
    <trip id="302" depart="31.00" from="-423204799#3.1029" to="27263699"/>
    <trip id="303" depart="31.00" from="-295017255" to="11617759#1"/>
    <trip id="304" depart="31.00" from="-11618827#1" to="11619357"/>
    <trip id="305" depart="31.00" from="-351451186" to="11624104#1"/>
    <trip id="306" depart="32.00" from="-11625060" to="11622198#1"/>
    <trip id="307" depart="32.00" from="11618499#0" to="11619713#7"/>
    <trip id="308" depart="32.00" from="32334434#0.2011" to="-11624781"/>
    <trip id="309" depart="32.00" from="-11618066#3" to="28885893#3"/>
    <trip id="310" depart="32.00" from="-11618508#2" to="56054062#0"/>
    <trip id="311" depart="32.00" from="11623371#0" to="-261715208#0"/>
    <trip id="312" depart="32.00" from="-422529567#7" to="11613734#6"/>
    <trip id="313" depart="32.00" from="-11619357" to="11625060"/>
    <trip id="314" depart="32.00" from="422528959#1" to="11620047#0"/>
    <trip id="315" depart="32.00" from="-423738845#4" to="346923276"/>
    <trip id="316" depart="32.00" from="11624369#0" to="11620217#1"/>
    <trip id="317" depart="33.00" from="11618714.145" to="11620217#1"/>
    <trip id="318" depart="33.00" from="11615252#0" to="11619367#6"/>
    <trip id="319" depart="33.00" from="60254465.1423" to="-27827473#0"/>
    <trip id="320" depart="33.00" from="-11620047#2" to="11620527"/>
    <trip id="321" depart="33.00" from="-11618063#2" to="11617799#4"/>
    <trip id="322" depart="33.00" from="-224940712#4" to="11623571#3"/>
    <trip id="323" depart="33.00" from="-11620492#1" to="230388293#5"/>
    <trip id="324" depart="33.00" from="-11617566" to="11621452#7"/>
    <trip id="325" depart="34.00" from="61671697" to="351451186"/>
    <trip id="326" depart="34.00" from="46965570" to="-61671712#0"/>
    <trip id="327" depart="34.00" from="-262807715#6" to="422529567#7"/>
    <trip id="328" depart="34.00" from="-11617905#1" to="11621458"/>
    <trip id="329" depart="34.00" from="-11618499#1" to="27239078#6"/>
    <trip id="330" depart="34.00" from="-11620525#2" to="262807631#7"/>
    <trip id="331" depart="34.00" from="11619196#0" to="11620210"/>
    <trip id="332" depart="35.00" from="-421351654#4" to="-422529567#0"/>
    <trip id="333" depart="35.00" from="-11619496#6" to="11621548"/>
    <trip id="334" depart="35.00" from="11624526#0" to="-11622256#0"/>
    <trip id="335" depart="35.00" from="-11620210" to="-60787965#0"/>
    <trip id="336" depart="35.00" from="-11618827#1" to="27263699"/>
    <trip id="337" depart="35.00" from="-425442685#1" to="11617072#2"/>
    <trip id="338" depart="35.00" from="-11621844" to="11622414#7"/>
    <trip id="339" depart="35.00" from="-11620210" to="11623413"/>
    <trip id="340" depart="35.00" from="-11622071#1" to="425431904"/>
    <trip id="341" depart="36.00" from="-11616731#1" to="346923272#0"/>
    <trip id="342" depart="36.00" from="-54672534" to="11618715"/>
    <trip id="343" depart="36.00" from="-11624780#1" to="-46965570"/>
    <trip id="344" depart="36.00" from="-351451186" to="-61671701#0"/>
    <trip id="345" depart="36.00" from="-11620417" to="11624798"/>
    <trip id="346" depart="36.00" from="-46962415" to="11620056#4"/>
    <trip id="347" depart="36.00" from="-346657923" to="346923271"/>
    <trip id="348" depart="36.00" from="11624369#0" to="11622315"/>
    <trip id="349" depart="37.00" from="32334434#0.2011" to="422751054#6"/>
    <trip id="350" depart="37.00" from="27398149" to="346923278"/>
    <trip id="351" depart="37.00" from="-11617072#2" to="-261719101"/>
    <trip id="352" depart="37.00" from="-353008483" to="357233525"/>
    <trip id="353" depart="37.00" from="-262807631#7" to="422751054#6"/>
    <trip id="354" depart="37.00" from="11618657#0" to="11624750#6"/>
    <trip id="355" depart="37.00" from="28274780#2" to="-421351654#0"/>
    <trip id="356" depart="37.00" from="11618827#0" to="27829387#4"/>
    <trip id="357" depart="37.00" from="60785883#0" to="11621857"/>
    <trip id="358" depart="37.00" from="27827473#0" to="-421351654#0"/>
    <trip id="359" depart="37.00" from="11624983#1" to="424473202"/>
    <trip id="360" depart="37.00" from="11622842#0" to="46962415"/>
    <trip id="361" depart="38.00" from="-295017255" to="-61671701#0"/>
    <trip id="362" depart="38.00" from="-11616731#1" to="261713328#2"/>
    <trip id="363" depart="38.00" from="-11621096" to="-11620217#0"/>
    <trip id="364" depart="38.00" from="-11614336" to="268206344#1"/>
    <trip id="365" depart="38.00" from="268206248#0" to="353008483"/>
    <trip id="366" depart="38.00" from="-11617566" to="426412565#4"/>
    <trip id="367" depart="38.00" from="-511747899#1" to="-11619196#0"/>
    <trip id="368" depart="38.00" from="27263695" to="357233525"/>
    <trip id="369" depart="39.00" from="11623478" to="423501578#3"/>
    <trip id="370" depart="39.00" from="-425195349#6" to="11618345"/>
    <trip id="371" depart="39.00" from="11619191" to="421351654#4"/>
    <trip id="372" depart="39.00" from="-11617072#2" to="11619460"/>
    <trip id="373" depart="39.00" from="-425431904" to="-421373641"/>
    <trip id="374" depart="39.00" from="-11624798" to="346657923"/>
    <trip id="375" depart="39.00" from="-11618609" to="261713328#2"/>
    <trip id="376" depart="39.00" from="-11617949#2" to="-11617851"/>
    <trip id="377" depart="39.00" from="261713325" to="-27827481#0"/>
    <trip id="378" depart="40.00" from="-425431904" to="11622256#1"/>
    <trip id="379" depart="40.00" from="-425408799" to="424845544#4"/>
    <trip id="380" depart="40.00" from="-11620210" to="11619881"/>
    <trip id="381" depart="40.00" from="268206248#0" to="11617072#2"/>
    <trip id="382" depart="40.00" from="11620723#1" to="49200114#4"/>
    <trip id="383" depart="40.00" from="11621593" to="11619405#2"/>
    <trip id="384" depart="40.00" from="11620837" to="11623413"/>
    <trip id="385" depart="40.00" from="-11624809" to="11619713#7"/>
    <trip id="386" depart="40.00" from="11615252#0" to="11623644#6"/>
    <trip id="387" depart="41.00" from="-11620726" to="11623413"/>
    <trip id="388" depart="41.00" from="-11617148#5" to="358952990"/>
    <trip id="389" depart="41.00" from="11616496" to="-11625052"/>
    <trip id="390" depart="41.00" from="416681463" to="11622092#3"/>
    <trip id="391" depart="42.00" from="-11617072#2" to="11613734#6"/>
    <trip id="392" depart="42.00" from="-11619496#6" to="11620417"/>
    <trip id="393" depart="42.00" from="-46965481#3.901" to="46965481#3"/>
    <trip id="394" depart="42.00" from="-511747899#1" to="576349119"/>
    <trip id="395" depart="42.00" from="-425408799" to="423501578#3"/>
    <trip id="396" depart="42.00" from="-11619713#7.246" to="346657923"/>
    <trip id="397" depart="42.00" from="-422534132#3" to="-27827471#0"/>
    <trip id="398" depart="42.00" from="-346923272#2" to="-11620163"/>
    <trip id="399" depart="43.00" from="49199993" to="11620217#1"/>
    <trip id="400" depart="43.00" from="-224940712#4" to="11620047#0"/>
    <trip id="401" depart="43.00" from="-425195349#6" to="54672534"/>
    <trip id="402" depart="43.00" from="11620163" to="11619260"/>
    <trip id="403" depart="43.00" from="27827471#0" to="11624750#6"/>
    <trip id="404" depart="43.00" from="-11621970" to="425442682#8"/>
    <trip id="405" depart="43.00" from="-511747897" to="-415459430#0"/>
    <trip id="406" depart="44.00" from="-11618345" to="46965481#3"/>
    <trip id="407" depart="44.00" from="-346657923" to="11618715"/>
    <trip id="408" depart="44.00" from="-11621372" to="11621420#3"/>
    <trip id="409" depart="44.00" from="11624579#0" to="11619881"/>
    <trip id="410" depart="44.00" from="-11622315" to="11619717"/>
    <trip id="411" depart="44.00" from="-346923278" to="256942032#0"/>
    <trip id="412" depart="44.00" from="-60785883#6" to="581804462#4"/>
    <trip id="413" depart="44.00" from="-11617401" to="-422529567#0"/>
    <trip id="414" depart="44.00" from="-11619460" to="11620431#1"/>
    <trip id="415" depart="45.00" from="261719103" to="11623702#4"/>
    <trip id="416" depart="45.00" from="-11621970" to="46962415"/>
    <trip id="417" depart="45.00" from="11624029" to="46965481#3"/>
    <trip id="418" depart="45.00" from="-11622414#7" to="-422529567#0"/>
    <trip id="419" depart="45.00" from="-11622730#2" to="11617072#2"/>
    <trip id="420" depart="45.00" from="11617959" to="11617148#5"/>
    <trip id="421" depart="45.00" from="-357233525" to="-415459430#0"/>
    <trip id="422" depart="45.00" from="-11617401" to="11624579#3"/>
    <trip id="423" depart="45.00" from="-11620210" to="11618609"/>
    <trip id="424" depart="45.00" from="268206248#0" to="425442682#8"/>
    <trip id="425" depart="45.00" from="-11621844" to="274861829#2"/>