<?xml version="1.0" encoding="UTF-8"?>
<!-- generated on 2018-08-08 23:02:43.324123 by $Id$
  options: -n southampton.net.xml -e 7200 <doubleminus>fringe-factor 1 <doubleminus>period 0.66666666 <doubleminus>binomial 30 <doubleminus>min-distance 3500 <doubleminus>route-file routes_southampton_20.xml
-->
<routes xmlns:xsi="http://www.w3.org/2001/XMLSchema-instance" xsi:noNamespaceSchemaLocation="http://sumo.dlr.de/xsd/routes_file.xsd">
    <trip id="0" depart="1.00" from="2250236#5" to="-23154913#2"/>
    <trip id="1" depart="2.00" from="-4635652#3" to="-146412982#7"/>
    <trip id="2" depart="2.00" from="16442187" to="31735997#5"/>
    <trip id="3" depart="3.00" from="-8126419#2" to="1671"/>
    <trip id="4" depart="4.00" from="154356742#5" to="-145884873#4"/>
    <trip id="5" depart="4.00" from="145698215#0" to="-154075505"/>
    <trip id="6" depart="4.00" from="146770243#3" to="149920723#0"/>
    <trip id="7" depart="7.00" from="4437755#0" to="3088261#1"/>
    <trip id="8" depart="8.00" from="8126576#1" to="398325780#0"/>
    <trip id="9" depart="8.00" from="124258661#7" to="-230886257#1"/>
    <trip id="10" depart="10.00" from="-154344282#1" to="153760715#9"/>
    <trip id="11" depart="10.00" from="82105562#2" to="-154309351"/>
    <trip id="12" depart="11.00" from="300707937#1" to="23230153#4"/>
    <trip id="13" depart="12.00" from="2854842" to="146340144#2"/>
    <trip id="14" depart="12.00" from="-4546511#1" to="223125117#0"/>
    <trip id="15" depart="12.00" from="145484564#1" to="-153987222#1"/>
    <trip id="16" depart="13.00" from="-146275985#2" to="-23159938#0"/>
    <trip id="17" depart="14.00" from="80753136" to="-154452532"/>
    <trip id="18" depart="15.00" from="-4687259#3" to="-3999849#4"/>
    <trip id="19" depart="15.00" from="-89606992#1" to="-5948355#2"/>
    <trip id="20" depart="18.00" from="4549107#4" to="153931837"/>
    <trip id="21" depart="19.00" from="-154339145" to="-152668820#0"/>
    <trip id="22" depart="19.00" from="-4360459" to="-145268911#1"/>
    <trip id="23" depart="19.00" from="4683723#2" to="300706779"/>
    <trip id="24" depart="19.00" from="187831734#3" to="4549116#5"/>
    <trip id="25" depart="20.00" from="-8132235#0" to="-4386808#2"/>
    <trip id="26" depart="21.00" from="4313901#3" to="4569974"/>
    <trip id="27" depart="21.00" from="-323292745" to="-89955272#2"/>
    <trip id="28" depart="22.00" from="-157071980#2" to="-4604560#0"/>
    <trip id="29" depart="22.00" from="4271523#5" to="30439933#0"/>
    <trip id="30" depart="22.00" from="238558833#3" to="145886513#1"/>
    <trip id="31" depart="24.00" from="-186" to="4437850#4"/>
    <trip id="32" depart="25.00" from="146412982#0" to="3281#0"/>
    <trip id="33" depart="25.00" from="-4353805" to="518850676"/>
    <trip id="34" depart="25.00" from="-3999838#4" to="175858085#1"/>
    <trip id="35" depart="25.00" from="92666214#1" to="-3290"/>
    <trip id="36" depart="26.00" from="4585124#0" to="4546372"/>
    <trip id="37" depart="26.00" from="179618800#0" to="23331632#0"/>
    <trip id="38" depart="27.00" from="-28903682" to="3999133#1"/>
    <trip id="39" depart="27.00" from="390040505#1" to="-154344530#2"/>
    <trip id="40" depart="29.00" from="23282302#0" to="300708559#3"/>
    <trip id="41" depart="32.00" from="-4546064#3" to="-145484587"/>
    <trip id="42" depart="32.00" from="29058046#11" to="-154356739#7"/>
    <trip id="43" depart="33.00" from="-1658#4" to="243994323#1"/>
    <trip id="44" depart="34.00" from="25193011#0" to="4546468"/>
    <trip id="45" depart="35.00" from="23490339" to="4539975#1"/>
    <trip id="46" depart="35.00" from="-28553431#4" to="3907167#3"/>
    <trip id="47" depart="36.00" from="-1932#5" to="145583157#1"/>
    <trip id="48" depart="37.00" from="-145691548#2" to="-2854813#1"/>
    <trip id="49" depart="38.00" from="4569979#0" to="-23223351#0"/>
    <trip id="50" depart="38.00" from="15723789" to="51753391"/>
    <trip id="51" depart="41.00" from="-30439933#3" to="46800054#5"/>
    <trip id="52" depart="42.00" from="-4061544#4" to="4687599#1"/>
    <trip id="53" depart="45.00" from="146415957#4" to="23318494"/>
    <trip id="54" depart="45.00" from="-146415967#1" to="3286#0"/>
    <trip id="55" depart="46.00" from="-300706775#5" to="-154407472#9"/>
    <trip id="56" depart="46.00" from="146413889#0" to="3999278"/>
    <trip id="57" depart="46.00" from="149920723#0" to="-71588319#2"/>
    <trip id="58" depart="47.00" from="15451501#1" to="23230163#10"/>
    <trip id="59" depart="47.00" from="-15723184#1" to="394860275#0"/>
    <trip id="60" depart="48.00" from="-145690677#1" to="4437508#1"/>
    <trip id="61" depart="49.00" from="177037842#0" to="4237901#0"/>
    <trip id="62" depart="50.00" from="-82110464#5" to="-368533081"/>
    <trip id="63" depart="51.00" from="154337544#1" to="-29058046#12"/>
    <trip id="64" depart="51.00" from="1925#0" to="92384969#2"/>
    <trip id="65" depart="53.00" from="15942070#0" to="303172701#6"/>
    <trip id="66" depart="53.00" from="-4437959" to="-145486045#1"/>
    <trip id="67" depart="53.00" from="-5041393#0" to="-8143315#0"/>
    <trip id="68" depart="53.00" from="-4329703#2" to="-24307854#3"/>
    <trip id="69" depart="53.00" from="-150771747#1" to="-3189513#0"/>
    <trip id="70" depart="53.00" from="-154340674#0" to="-146412982#3"/>
    <trip id="71" depart="53.00" from="3314#4" to="-6136574#4"/>
    <trip id="72" depart="54.00" from="59411612" to="-4061542#4"/>
    <trip id="73" depart="54.00" from="-1694#2" to="-4727634#10"/>
    <trip id="74" depart="55.00" from="-23227424#1" to="30440075#1"/>
    <trip id="75" depart="55.00" from="-4360462#0" to="-178171562"/>
    <trip id="76" depart="56.00" from="289465227" to="-4546550"/>
    <trip id="77" depart="57.00" from="23242088#0" to="-98723815#1"/>
    <trip id="78" depart="57.00" from="149396565#2" to="-217954836#0"/>
    <trip id="79" depart="58.00" from="2350446#0" to="-4567245#4"/>
    <trip id="80" depart="58.00" from="-4269302#2" to="229082197#0"/>
    <trip id="81" depart="58.00" from="-8126419#3" to="2778249#0"/>
    <trip id="82" depart="59.00" from="-154527543#5" to="-8148762#4"/>
    <trip id="83" depart="60.00" from="-185008002#0" to="-152463287#2"/>
    <trip id="84" depart="60.00" from="-238310355" to="-4076769#1"/>
    <trip id="85" depart="60.00" from="-46596024#0" to="-1260853#2"/>
    <trip id="86" depart="61.00" from="4405505#1" to="90217913#1"/>
    <trip id="87" depart="61.00" from="-138914434" to="-4015803#1"/>
    <trip id="88" depart="61.00" from="4077022#6" to="-4084408#5"/>
    <trip id="89" depart="63.00" from="353055580" to="80633196#6"/>
    <trip id="90" depart="63.00" from="4546534#1" to="-145686601"/>
    <trip id="91" depart="63.00" from="-30838560#2" to="243994311#3"/>
    <trip id="92" depart="64.00" from="4437508#1" to="4585123#2"/>
    <trip id="93" depart="65.00" from="-4437501#2" to="-1687#1"/>
    <trip id="94" depart="65.00" from="4546379#2" to="-4539220#1"/>
    <trip id="95" depart="65.00" from="4271532#3" to="23323927"/>
    <trip id="96" depart="65.00" from="4215225#1" to="-145886309#3"/>
    <trip id="97" depart="65.00" from="146415966" to="390807191#2"/>
    <trip id="98" depart="65.00" from="1260853#1" to="23282351#0"/>
    <trip id="99" depart="66.00" from="-4546063" to="153760709#3"/>
    <trip id="100" depart="66.00" from="-23458238" to="-145691557#2"/>
    <trip id="101" depart="66.00" from="4077031#0" to="154349168#1"/>
    <trip id="102" depart="67.00" from="-154453555#1" to="-50279631"/>
    <trip id="103" depart="67.00" from="369939833#0" to="-154309354#2"/>
    <trip id="104" depart="68.00" from="-145693261#1" to="8137924#1"/>
    <trip id="105" depart="70.00" from="-4437625#0" to="177114171#0"/>
    <trip id="106" depart="70.00" from="3996897#1" to="4539391"/>
    <trip id="107" depart="70.00" from="9676787#0" to="-28553225#0"/>
    <trip id="108" depart="71.00" from="28034532" to="23318341"/>
    <trip id="109" depart="71.00" from="-146415962#2" to="-71588109"/>
    <trip id="110" depart="72.00" from="-300708556#1" to="154349168#1"/>
    <trip id="111" depart="73.00" from="-145884863#1" to="-283698526"/>
    <trip id="112" depart="73.00" from="-8132904#1" to="13250787#0"/>
    <trip id="113" depart="73.00" from="4687327#1" to="-16414510#0"/>
    <trip id="114" depart="75.00" from="-160779047" to="-169999411#5"/>
    <trip id="115" depart="75.00" from="-4546379#2" to="4079325#2"/>
    <trip id="116" depart="78.00" from="-429112847" to="4360454#4"/>
    <trip id="117" depart="80.00" from="-169999411#6" to="3999132#1"/>
    <trip id="118" depart="81.00" from="-138914437#0" to="-13252474#0"/>
    <trip id="119" depart="81.00" from="-303172691#1" to="361387406#1"/>
    <trip id="120" depart="82.00" from="2956545#0" to="154356739#6"/>
    <trip id="121" depart="83.00" from="-4437854#2" to="-4061540#0"/>
    <trip id="122" depart="83.00" from="-23282114" to="8229128"/>
    <trip id="123" depart="84.00" from="-146415022#0" to="-1260098#1"/>
    <trip id="124" depart="84.00" from="-28528447#3" to="24307056#3"/>
    <trip id="125" depart="85.00" from="3780198#0" to="4604565#1"/>
    <trip id="126" depart="86.00" from="469802176#0" to="153260603#0"/>
    <trip id="127" depart="86.00" from="2147334#0" to="371181917"/>
    <trip id="128" depart="86.00" from="4005421#2" to="2818442#3"/>
    <trip id="129" depart="87.00" from="132845960" to="-28553225#0"/>
    <trip id="130" depart="87.00" from="-148789782" to="-361025525#2"/>
    <trip id="131" depart="87.00" from="297342210#1" to="3281#4"/>
    <trip id="132" depart="89.00" from="-23221862#3" to="4585268#4"/>
    <trip id="133" depart="89.00" from="2494482#1" to="124416949#0"/>
    <trip id="134" depart="90.00" from="-145686597#1" to="27143237#2"/>
    <trip id="135" depart="90.00" from="4539473#2" to="4008571"/>
    <trip id="136" depart="92.00" from="3578447#1" to="51549995#1"/>
    <trip id="137" depart="92.00" from="154341130" to="-10556366"/>
    <trip id="138" depart="93.00" from="150771747#5" to="-15722113#3"/>
    <trip id="139" depart="93.00" from="-369547520#1" to="9676785#2"/>
    <trip id="140" depart="94.00" from="-15722113#4" to="4604600#1"/>
    <trip id="141" depart="97.00" from="-4546343" to="-145484581#1"/>
    <trip id="142" depart="98.00" from="-23490300#1" to="-145884878"/>
    <trip id="143" depart="98.00" from="153793766#1" to="-146415021"/>
    <trip id="144" depart="99.00" from="-4539985#0" to="-4687172#0"/>
    <trip id="145" depart="100.00" from="-2854829" to="-16610266#4"/>
    <trip id="146" depart="102.00" from="10517552#1" to="237454216#0"/>
    <trip id="147" depart="102.00" from="-32925834#7" to="174906628#0"/>
    <trip id="148" depart="102.00" from="-28553370" to="-1639364#1"/>
    <trip id="149" depart="104.00" from="8131447#0" to="-23282265#0"/>
    <trip id="150" depart="104.00" from="-28528447#3" to="311105587#9"/>
    <trip id="151" depart="105.00" from="154336056#1" to="28553431#3"/>
    <trip id="152" depart="105.00" from="2250236#10" to="2147334#5"/>
    <trip id="153" depart="107.00" from="-28751575" to="-151224669#22"/>
    <trip id="154" depart="108.00" from="-4379593#2" to="-150771747#6"/>
    <trip id="155" depart="108.00" from="2147858#1" to="-23229964#1"/>
    <trip id="156" depart="108.00" from="4015826#0" to="-4253359#1"/>
    <trip id="157" depart="108.00" from="-23227653#4" to="4079282"/>
    <trip id="158" depart="109.00" from="4579873" to="-156860038#3"/>
    <trip id="159" depart="109.00" from="238909723#2" to="145583152#1"/>
    <trip id="160" depart="109.00" from="-4043820" to="4379593#1"/>
    <trip id="161" depart="110.00" from="-16414175#2" to="-4546318#6"/>
    <trip id="162" depart="111.00" from="28750739#0" to="154402360"/>
    <trip id="163" depart="112.00" from="2854806#1" to="145691556#1"/>
    <trip id="164" depart="114.00" from="3999272#0" to="154407473#0"/>
    <trip id="165" depart="114.00" from="-300706781#0" to="154345649#2"/>
    <trip id="166" depart="115.00" from="59097298" to="-30440139#0"/>
    <trip id="167" depart="115.00" from="4061524#3" to="-4437176#5"/>
    <trip id="168" depart="117.00" from="2501903#1" to="-4074124#1"/>
    <trip id="169" depart="118.00" from="89953964#3" to="-3999838#3"/>
    <trip id="170" depart="119.00" from="23282370#6" to="-146413580#1"/>
    <trip id="171" depart="120.00" from="9675174#0" to="-4005403#1"/>
    <trip id="172" depart="120.00" from="-33906770" to="-1664#1"/>
    <trip id="173" depart="120.00" from="-2854821#0" to="-249381955#0"/>
    <trip id="174" depart="120.00" from="-29058046#0" to="154342949"/>
    <trip id="175" depart="122.00" from="-177115160#1" to="178765725"/>
    <trip id="176" depart="122.00" from="38026662#0" to="154470766#4"/>
    <trip id="177" depart="123.00" from="-146275987" to="-23490339"/>
    <trip id="178" depart="123.00" from="-4329703#2" to="-299668183#3"/>
    <trip id="179" depart="124.00" from="-157070609#0" to="3999855#3"/>
    <trip id="180" depart="125.00" from="-4363109#0" to="-4077025#3"/>
    <trip id="181" depart="125.00" from="3999277#0" to="15452290#2"/>
    <trip id="182" depart="126.00" from="300713087#0" to="-28767643"/>
    <trip id="183" depart="127.00" from="300713089" to="13251347#1"/>
    <trip id="184" depart="128.00" from="-1639435#7" to="4567245#0"/>
    <trip id="185" depart="128.00" from="303172174#3" to="4636410#0"/>
    <trip id="186" depart="128.00" from="3294#3" to="4549116#1"/>
    <trip id="187" depart="130.00" from="301042439#1" to="145884873#10"/>
    <trip id="188" depart="131.00" from="174906628#0" to="4333406"/>
    <trip id="189" depart="132.00" from="146275983#2" to="4546340#1"/>
    <trip id="190" depart="132.00" from="-4353804#4" to="-157070598#1"/>
    <trip id="191" depart="132.00" from="-4546453#0" to="-4077042#2"/>
    <trip id="192" depart="133.00" from="-70330592#1" to="396693235"/>
    <trip id="193" depart="135.00" from="-146416370#1" to="4539437#0"/>
    <trip id="194" depart="135.00" from="-4279036#4" to="-28950417"/>
    <trip id="195" depart="136.00" from="4800838#1" to="175860665"/>
    <trip id="196" depart="136.00" from="-4437625#0" to="149396560#6"/>
    <trip id="197" depart="137.00" from="-2854832#1" to="145886513#1"/>
    <trip id="198" depart="138.00" from="-145884863#1" to="-4875466#0"/>
    <trip id="199" depart="138.00" from="-4342668#2" to="-15452223#1"/>
    <trip id="200" depart="139.00" from="-141627844#2" to="4405507#0"/>
    <trip id="201" depart="139.00" from="-96198546#1" to="229082190"/>
    <trip id="202" depart="139.00" from="-303172175#2" to="-222565138#1"/>
    <trip id="203" depart="140.00" from="92474468" to="8150576#2"/>
    <trip id="204" depart="140.00" from="4015819#2" to="4437757#0"/>
    <trip id="205" depart="140.00" from="-23230153#3" to="4549101#0"/>
    <trip id="206" depart="140.00" from="51549995#1" to="10568674"/>
    <trip id="207" depart="141.00" from="-23170579#5" to="154341130"/>
    <trip id="208" depart="143.00" from="15725191#0" to="151224667#4"/>
    <trip id="209" depart="143.00" from="-4079298#2" to="23242089"/>
    <trip id="210" depart="143.00" from="3088260#0" to="146275982#1"/>
    <trip id="211" depart="144.00" from="15722353#0" to="-178069306"/>
    <trip id="212" depart="145.00" from="-4436892#2" to="42141179"/>
    <trip id="213" depart="145.00" from="-4687634" to="16431949#0"/>
    <trip id="214" depart="146.00" from="-300708553#1" to="4437546#2"/>
    <trip id="215" depart="147.00" from="-4077023#2" to="154351749"/>
    <trip id="216" depart="147.00" from="177861959#0" to="-3578760#0"/>
    <trip id="217" depart="147.00" from="-318492928" to="4079325#3"/>
    <trip id="218" depart="147.00" from="15723788#2" to="8125060"/>
    <trip id="219" depart="148.00" from="4436891#2" to="4635657"/>
    <trip id="220" depart="148.00" from="1936#3" to="-8430283#1"/>
    <trip id="221" depart="149.00" from="-4585179" to="4437585#0"/>
    <trip id="222" depart="150.00" from="149396556#2" to="-328626005#0"/>
    <trip id="223" depart="150.00" from="154039136#0" to="-1260853#8"/>
    <trip id="224" depart="150.00" from="4437585#0" to="-15724196#1"/>
    <trip id="225" depart="151.00" from="-9652509#1" to="-4379593#1"/>
    <trip id="226" depart="151.00" from="-358792745#1" to="300713856"/>
    <trip id="227" depart="152.00" from="-153801826#0" to="-152463286#2"/>
    <trip id="228" depart="153.00" from="-4539982#2" to="29058774#2"/>
    <trip id="229" depart="154.00" from="-460175998#0" to="4079282"/>
    <trip id="230" depart="154.00" from="-146415956#1" to="4295845#1"/>
    <trip id="231" depart="155.00" from="149920739#0" to="-10512957#1"/>
    <trip id="232" depart="156.00" from="1260098#4" to="27143324#2"/>
    <trip id="233" depart="157.00" from="2854806#1" to="-156861347#2"/>
    <trip id="234" depart="161.00" from="-300703999#11" to="82111544#9"/>
    <trip id="235" depart="162.00" from="-4437850#6" to="-23221862#3"/>
    <trip id="236" depart="162.00" from="92384977#1" to="367821#1"/>
    <trip id="237" depart="162.00" from="-4549114#2" to="-30439933#0"/>
    <trip id="238" depart="163.00" from="8134022#0" to="-23229962"/>
    <trip id="239" depart="164.00" from="-145686537#1" to="-23227617"/>
    <trip id="240" depart="165.00" from="249381905#0" to="152463287#5"/>
    <trip id="241" depart="165.00" from="-4077031#9" to="-23230163#19"/>
    <trip id="242" depart="166.00" from="41587291" to="98280744"/>
    <trip id="243" depart="166.00" from="194403287#2" to="-4077025#2"/>
    <trip id="244" depart="166.00" from="-4310886" to="-323543226#0"/>
    <trip id="245" depart="167.00" from="243994313" to="4215238#1"/>
    <trip id="246" depart="167.00" from="180140704" to="3999323#7"/>
    <trip id="247" depart="168.00" from="177112502" to="-1260196#7"/>
    <trip id="248" depart="168.00" from="23227433#0" to="-15452032#1"/>
    <trip id="249" depart="169.00" from="145583152#0" to="3999270#5"/>
    <trip id="250" depart="170.00" from="-4076771#3" to="9678653#0"/>
    <trip id="251" depart="170.00" from="-75107764#1" to="-145884873#8"/>
    <trip id="252" depart="170.00" from="-146419320#4" to="23229964#0"/>
    <trip id="253" depart="171.00" from="-145693298#2" to="4585181#1"/>
    <trip id="254" depart="171.00" from="-3999858#0" to="3994505#2"/>
    <trip id="255" depart="171.00" from="152817492" to="-4015819#2"/>
    <trip id="256" depart="172.00" from="154802226#1" to="4076768#1"/>
    <trip id="257" depart="172.00" from="-157070604#2" to="10360749"/>
    <trip id="258" depart="173.00" from="-8123425#0" to="3806000#0"/>
    <trip id="259" depart="173.00" from="-131171042" to="-13250943#2"/>
    <trip id="260" depart="174.00" from="-2854806#0" to="176689011"/>
    <trip id="261" depart="174.00" from="-145690666#2" to="4379597"/>
    <trip id="262" depart="175.00" from="23154778#0" to="239908486#1"/>
    <trip id="263" depart="175.00" from="152463285#11" to="-113499810"/>
    <trip id="264" depart="176.00" from="-4539976" to="4546173#1"/>
    <trip id="265" depart="176.00" from="128124559#3" to="-149643069#1"/>
    <trip id="266" depart="177.00" from="-303174605" to="168319462#2"/>
    <trip id="267" depart="177.00" from="3111328#0" to="4019046"/>
    <trip id="268" depart="178.00" from="80633196#1" to="-177037841"/>
    <trip id="269" depart="179.00" from="-124258654#1" to="154470766#8"/>
    <trip id="270" depart="181.00" from="71584878" to="-4061542#4"/>
    <trip id="271" depart="182.00" from="369547520#10" to="23227565#3"/>
    <trip id="272" depart="182.00" from="96198557" to="369547520#11"/>
    <trip id="273" depart="182.00" from="-23323943" to="-153260599#1"/>
    <trip id="274" depart="183.00" from="154397889#1" to="311105588#2"/>
    <trip id="275" depart="183.00" from="-217952933#1" to="10481020#1"/>
    <trip id="276" depart="184.00" from="124258702#3" to="124258690"/>
    <trip id="277" depart="184.00" from="23230153#2" to="172066279#3"/>
    <trip id="278" depart="185.00" from="303172694" to="-4015799#1"/>
    <trip id="279" depart="185.00" from="30785740#1" to="82111810#4"/>
    <trip id="280" depart="185.00" from="-4546379#1" to="25053180#3"/>
    <trip id="281" depart="186.00" from="-4074112#1" to="-4698140#0"/>
    <trip id="282" depart="187.00" from="-146459739#2" to="-154356746"/>
    <trip id="283" depart="187.00" from="3999323#3" to="23230048#2"/>
    <trip id="284" depart="187.00" from="146459739#3" to="-2956545#1"/>
    <trip id="285" depart="187.00" from="-82110206#3" to="4215246#3"/>
    <trip id="286" depart="188.00" from="152463286#4" to="15451501#4"/>
    <trip id="287" depart="188.00" from="-23323960" to="3358562"/>
    <trip id="288" depart="188.00" from="-239265856#2" to="303172180#0"/>
    <trip id="289" depart="188.00" from="8134022#0" to="-4074124#1"/>
    <trip id="290" depart="189.00" from="1206036#0" to="-152463285#6"/>
    <trip id="291" depart="191.00" from="156100113#0" to="3999848#0"/>
    <trip id="292" depart="191.00" from="323527022#2" to="-89955269#1"/>
    <trip id="293" depart="192.00" from="4687633#1" to="4536331#1"/>
    <trip id="294" depart="192.00" from="-122141477#1" to="-4546453#0"/>
    <trip id="295" depart="192.00" from="3084235#2" to="3994502#0"/>
    <trip id="296" depart="192.00" from="-15723185#1" to="-4374215#5"/>
    <trip id="297" depart="193.00" from="-238558833#2" to="28553217#1"/>
    <trip id="298" depart="195.00" from="-154075501#0" to="324478287"/>
    <trip id="299" depart="197.00" from="5041386#1" to="4082119#0"/>
    <trip id="300" depart="198.00" from="82114557#3" to="157070619"/>
    <trip id="301" depart="199.00" from="-4405514#0" to="154528390#1"/>
    <trip id="302" depart="200.00" from="4074103#0" to="154352026#4"/>
    <trip id="303" depart="200.00" from="-4727634#7" to="8430253#1"/>
    <trip id="304" depart="201.00" from="8314348" to="30440139#5"/>
    <trip id="305" depart="203.00" from="5072036#1" to="188468744#1"/>
    <trip id="306" depart="203.00" from="97465556" to="253350846"/>
    <trip id="307" depart="203.00" from="23154830#1" to="2623093#0"/>
    <trip id="308" depart="204.00" from="4077023#4" to="3431519#0"/>
    <trip id="309" depart="204.00" from="-1261336#4" to="-145268911#24"/>
    <trip id="310" depart="205.00" from="4310885#0" to="9652512#0"/>
    <trip id="311" depart="206.00" from="173756295#3" to="154356742#6"/>
    <trip id="312" depart="206.00" from="4539385#0" to="47413892#1"/>
    <trip id="313" depart="207.00" from="154456944#0" to="4074112#2"/>
    <trip id="314" depart="207.00" from="-1639446#3" to="-82111544#5"/>
    <trip id="315" depart="208.00" from="146415022#1" to="154397904"/>
    <trip id="316" depart="208.00" from="-4604560#1" to="-4546321#0"/>
    <trip id="317" depart="210.00" from="431544069#0" to="224411815"/>
    <trip id="318" depart="210.00" from="15452372" to="-4727629#1"/>
    <trip id="319" depart="211.00" from="-28836122#1" to="-390040505#2"/>
    <trip id="320" depart="211.00" from="23282322" to="139851196#0"/>
    <trip id="321" depart="213.00" from="-80624595#1" to="-177542062#0"/>
    <trip id="322" depart="213.00" from="-162834678#3" to="-146415027#0"/>
    <trip id="323" depart="214.00" from="96199871#4" to="187831734#3"/>
    <trip id="324" depart="214.00" from="-318492933#0" to="9657397#5"/>
    <trip id="325" depart="215.00" from="-444382276#1" to="-4569977#0"/>
    <trip id="326" depart="215.00" from="71588090" to="-37876404#0"/>
    <trip id="327" depart="216.00" from="1639446#3" to="-154400949#1"/>
    <trip id="328" depart="216.00" from="4077042#0" to="184937237#6"/>
    <trip id="329" depart="219.00" from="-154356739#5" to="-4215246#1"/>
    <trip id="330" depart="220.00" from="154407676#0" to="3677095#0"/>
    <trip id="331" depart="220.00" from="146415021" to="-262297537"/>
    <trip id="332" depart="221.00" from="149643069#1" to="-5041394"/>
    <trip id="333" depart="221.00" from="-23282370#3" to="-28528434#0"/>
    <trip id="334" depart="222.00" from="-29058046#11" to="4546147#11"/>
    <trip id="335" depart="222.00" from="-30838560#5" to="71736829#1"/>
    <trip id="336" depart="223.00" from="-4353804#6" to="-150771747#4"/>
    <trip id="337" depart="224.00" from="-4727661" to="4437850#3"/>
    <trip id="338" depart="225.00" from="-89700061#2" to="25053177#0"/>
    <trip id="339" depart="225.00" from="10556365#3" to="3999316#0"/>
    <trip id="340" depart="226.00" from="4238069#0" to="-230582203#0"/>
    <trip id="341" depart="228.00" from="-4541327" to="5041386#0"/>
    <trip id="342" depart="231.00" from="30629161" to="3092124#1"/>
    <trip id="343" depart="232.00" from="23227615#2" to="-4437176#3"/>
    <trip id="344" depart="233.00" from="188#0" to="-122141477#0"/>
    <trip id="345" depart="233.00" from="-23221862#0" to="89955272#3"/>
    <trip id="346" depart="233.00" from="82111544#7" to="15452370"/>
    <trip id="347" depart="236.00" from="154259348" to="-145484559"/>
    <trip id="348" depart="236.00" from="-8148507" to="4269302#3"/>
    <trip id="349" depart="236.00" from="154457399#0" to="-29058774#4"/>
    <trip id="350" depart="237.00" from="-47271528#2" to="9676785#0"/>
    <trip id="351" depart="238.00" from="154400946#1" to="-47516642"/>
    <trip id="352" depart="238.00" from="-28528359#1" to="-82111544#0"/>
    <trip id="353" depart="238.00" from="154186777#7" to="-146275990#0"/>
    <trip id="354" depart="239.00" from="303172175#2" to="3291#0"/>
    <trip id="355" depart="240.00" from="-15724350#0" to="-156860059#1"/>
    <trip id="356" depart="240.00" from="154356742#5" to="3996901#3"/>
    <trip id="357" depart="240.00" from="-3431518" to="92384964"/>
    <trip id="358" depart="242.00" from="-4625937#1" to="15452226#1"/>
    <trip id="359" depart="242.00" from="23282271#1" to="80522755#2"/>
    <trip id="360" depart="242.00" from="154356739#1" to="28937926#3"/>
    <trip id="361" depart="242.00" from="-145484584#1" to="3275#0"/>
    <trip id="362" depart="243.00" from="-3999836" to="184937237#0"/>
    <trip id="363" depart="244.00" from="-1935#2" to="28553431#3"/>
    <trip id="364" depart="244.00" from="-4360447#2" to="28528447#3"/>
    <trip id="365" depart="244.00" from="-4405505#1" to="-369890235#1"/>
    <trip id="366" depart="245.00" from="1639364#0" to="-2501903#1"/>
    <trip id="367" depart="245.00" from="154470766#0" to="3999270#7"/>
    <trip id="368" depart="245.00" from="-8125055#1" to="15722211"/>
    <trip id="369" depart="246.00" from="-168284893" to="-4549116#1"/>
    <trip id="370" depart="246.00" from="-145698182#1" to="238909721"/>
    <trip id="371" depart="246.00" from="31735997#0" to="4077025#5"/>
    <trip id="372" depart="246.00" from="-71588319#2" to="80633196#0"/>
    <trip id="373" depart="248.00" from="4546481#2" to="4536704#1"/>
    <trip id="374" depart="249.00" from="178686054" to="-187831734#1"/>
    <trip id="375" depart="250.00" from="-3999849#4" to="71848642#0"/>
    <trip id="376" depart="250.00" from="3284#0" to="-4540188#0"/>
    <trip id="377" depart="251.00" from="23160002" to="4015799#0"/>
    <trip id="378" depart="251.00" from="-23221919#0" to="-29058046#6"/>
    <trip id="379" depart="251.00" from="-10361829" to="4005419#6"/>
    <trip id="380" depart="252.00" from="-23160009" to="376633764#1"/>
    <trip id="381" depart="255.00" from="-1639633#4" to="318496859#1"/>
    <trip id="382" depart="255.00" from="-4015820#0" to="460175998#1"/>
    <trip id="383" depart="256.00" from="124258690" to="8131446"/>
    <trip id="384" depart="256.00" from="-300706781#0" to="4437958#3"/>
    <trip id="385" depart="258.00" from="-2290962#1" to="146363000#2"/>
    <trip id="386" depart="259.00" from="27333700#3" to="-154339146#0"/>
    <trip id="387" depart="260.00" from="1639486#0" to="-4437963#0"/>
    <trip id="388" depart="260.00" from="-4353804#4" to="-150771748#0"/>
    <trip id="389" depart="260.00" from="-4079319#3" to="8126419#2"/>
    <trip id="390" depart="260.00" from="145268911#12" to="1936#5"/>
    <trip id="391" depart="260.00" from="29058774#0" to="4329578#0"/>
    <trip id="392" depart="261.00" from="-4687595" to="-80517486"/>
    <trip id="393" depart="261.00" from="8307811" to="145698215#0"/>
    <trip id="394" depart="263.00" from="15723376#0" to="23223351#2"/>
    <trip id="395" depart="264.00" from="-82111544#3" to="-4079287#0"/>
    <trip id="396" depart="265.00" from="-8137928#1" to="-3999828#2"/>
    <trip id="397" depart="265.00" from="178156506#1" to="154352844#1"/>
    <trip id="398" depart="266.00" from="-3999838#4" to="-4269323#1"/>
    <trip id="399" depart="267.00" from="3879902" to="4437625#0"/>
    <trip id="400" depart="267.00" from="-95946607#1" to="-152465424#5"/>
    <trip id="401" depart="268.00" from="-82110206#1" to="-81163715#1"/>
    <trip id="402" depart="269.00" from="4079298#1" to="-4539483#3"/>
    <trip id="403" depart="271.00" from="2148181" to="146340139#1"/>
    <trip id="404" depart="271.00" from="171704683#1" to="152463289#0"/>
    <trip id="405" depart="272.00" from="-154407472#0" to="-146415965#1"/>
    <trip id="406" depart="272.00" from="-31174655#5" to="188468746#1"/>
    <trip id="407" depart="273.00" from="198496045" to="154344530#1"/>
    <trip id="408" depart="273.00" from="149396571#0" to="15726486"/>
    <trip id="409" depart="274.00" from="-146459739#1" to="4546339#2"/>
    <trip id="410" depart="274.00" from="-23159995#0" to="-237454220#0"/>
    <trip id="411" depart="275.00" from="55362857" to="-300704011"/>
    <trip id="412" depart="277.00" from="8132235#2" to="223165391#3"/>
    <trip id="413" depart="277.00" from="-4386804" to="70321499"/>
    <trip id="414" depart="278.00" from="154456944#0" to="146416368"/>
    <trip id="415" depart="279.00" from="303172695#5" to="4549115#0"/>
    <trip id="416" depart="279.00" from="-4540332#1" to="1260395#0"/>
    <trip id="417" depart="279.00" from="4008603" to="239265814#0"/>
    <trip id="418" depart="280.00" from="4549119#3" to="89934239"/>
    <trip id="419" depart="280.00" from="-4546548#1" to="4061549#0"/>