<?xml version="1.0" encoding="UTF-8"?>
<!-- generated on 2018-08-09 21:55:45.550065 by $Id$
  options: -n southampton.net.xml -e 1200 <doubleminus>fringe-factor 1 <doubleminus>period 0.5 <doubleminus>binomial 30 <doubleminus>min-distance 3500 <doubleminus>route-file routes_southampton_testing_1.xml
-->
<routes xmlns:xsi="http://www.w3.org/2001/XMLSchema-instance" xsi:noNamespaceSchemaLocation="http://sumo.dlr.de/xsd/routes_file.xsd">
    <trip id="0" depart="0.00" from="-368531368" to="-28835740#3"/>
    <trip id="1" depart="0.00" from="154352840#4" to="-146275985#3"/>
    <trip id="2" depart="1.00" from="146340139#1" to="23230153#0"/>
    <trip id="3" depart="3.00" from="239265805" to="-169999411#1"/>
    <trip id="4" depart="4.00" from="31587096" to="-145686544#11"/>
    <trip id="5" depart="4.00" from="153824069" to="369547520#11"/>
    <trip id="6" depart="4.00" from="145268911#4" to="4539220#4"/>
    <trip id="7" depart="5.00" from="-323543233#1" to="303172176#3"/>
    <trip id="8" depart="5.00" from="-30838560#8" to="-4077033#0"/>
    <trip id="9" depart="5.00" from="3999282#1" to="46198772#1"/>
    <trip id="10" depart="6.00" from="-28937926#1" to="-23230163#19"/>
    <trip id="11" depart="6.00" from="-4580514" to="154075507"/>
    <trip id="12" depart="6.00" from="-10314255#0" to="-1260196#4"/>
    <trip id="13" depart="6.00" from="4437960#0" to="4077022#7"/>
    <trip id="14" depart="7.00" from="30629161" to="386012838#0"/>
    <trip id="15" depart="7.00" from="-4585174#2" to="4074133#0"/>
    <trip id="16" depart="7.00" from="63231142#0" to="184937237#6"/>
    <trip id="17" depart="7.00" from="-3286#0" to="4077022#0"/>
    <trip id="18" depart="8.00" from="4437900#1" to="367778599"/>
    <trip id="19" depart="8.00" from="-128124559#5" to="-303172180#0"/>
    <trip id="20" depart="9.00" from="-15724653#3" to="27119187#5"/>
    <trip id="21" depart="10.00" from="-4405517#0" to="146415954#2"/>
    <trip id="22" depart="11.00" from="-4586113#1" to="-224917541#0"/>
    <trip id="23" depart="11.00" from="-145583166#0" to="4437850#1"/>
    <trip id="24" depart="11.00" from="-23242091#1" to="16610268"/>
    <trip id="25" depart="12.00" from="-15452227#1" to="150771748#0"/>
    <trip id="26" depart="12.00" from="177112502" to="4437964#0"/>
    <trip id="27" depart="12.00" from="-153260596#4" to="-1932#9"/>
    <trip id="28" depart="12.00" from="1924#0" to="-4077025#3"/>
    <trip id="29" depart="12.00" from="-149396567#7" to="124258669#2"/>
    <trip id="30" depart="14.00" from="4279035#0" to="-161487123#2"/>
    <trip id="31" depart="14.00" from="-4539432" to="-4549116#6"/>
    <trip id="32" depart="14.00" from="-23282819#1" to="15724350#0"/>
    <trip id="33" depart="15.00" from="16442184#1" to="5948203"/>
    <trip id="34" depart="16.00" from="-96198552#0" to="3091879#26"/>
    <trip id="35" depart="16.00" from="-153801826#5" to="-8430283#0"/>
    <trip id="36" depart="16.00" from="-138715722" to="-4005409#4"/>
    <trip id="37" depart="17.00" from="-4604561#0" to="28553399#1"/>
    <trip id="38" depart="17.00" from="-318496862" to="-2573933#1"/>
    <trip id="39" depart="17.00" from="154457953" to="3999328#1"/>
    <trip id="40" depart="17.00" from="-3282#0" to="-4549114#1"/>
    <trip id="41" depart="18.00" from="-4437585#0" to="-23186668#1"/>
    <trip id="42" depart="18.00" from="-4546061" to="4567245#12"/>
    <trip id="43" depart="18.00" from="-4539473#3" to="-29058046#7"/>
    <trip id="44" depart="18.00" from="146340137" to="23227485#0"/>
    <trip id="45" depart="18.00" from="-2854811#5" to="-124416957#0"/>
    <trip id="46" depart="18.00" from="-4386811#0" to="4079293"/>
    <trip id="47" depart="19.00" from="-157071976#0" to="-156860046#2"/>
    <trip id="48" depart="19.00" from="-152463289#2" to="14505561#0"/>
    <trip id="49" depart="19.00" from="52082005#0" to="5072036#0"/>
    <trip id="50" depart="20.00" from="-4546481#3" to="-146415956#1"/>
    <trip id="51" depart="21.00" from="249381955#0" to="-82111544#2"/>
    <trip id="52" depart="21.00" from="-50484162#2" to="2854813#0"/>
    <trip id="53" depart="22.00" from="-5947663#2" to="8131483#0"/>
    <trip id="54" depart="23.00" from="3999317#2" to="-2249752#1"/>
    <trip id="55" depart="24.00" from="-3996460" to="3091889"/>
    <trip id="56" depart="25.00" from="-146415028#1" to="-3806000#1"/>
    <trip id="57" depart="25.00" from="54676057#1" to="-4215228#2"/>
    <trip id="58" depart="25.00" from="-23227446" to="-82111544#7"/>
    <trip id="59" depart="26.00" from="-28034529#0" to="23470828#0"/>
    <trip id="60" depart="26.00" from="3111328#2" to="-146340137"/>
    <trip id="61" depart="26.00" from="-4546067" to="-145486045#0"/>
    <trip id="62" depart="27.00" from="28551263#0" to="55337486#0"/>
    <trip id="63" depart="27.00" from="-4546482" to="10556558"/>
    <trip id="64" depart="28.00" from="-239265856#2" to="-4077031#22"/>
    <trip id="65" depart="28.00" from="82111056" to="-145484564#1"/>
    <trip id="66" depart="29.00" from="4084426#0" to="145686583#1"/>
    <trip id="67" depart="29.00" from="-154397892#0" to="25053180#5"/>
    <trip id="68" depart="30.00" from="-177115160#3" to="4539992#1"/>
    <trip id="69" depart="30.00" from="-204258951#1" to="146275983#11"/>
    <trip id="70" depart="31.00" from="145268911#23" to="179618800#11"/>
    <trip id="71" depart="32.00" from="23282330" to="27126590#1"/>
    <trip id="72" depart="33.00" from="154397886#0" to="154318116#1"/>
    <trip id="73" depart="33.00" from="146412982#1" to="4546058#0"/>
    <trip id="74" depart="34.00" from="-215236700#6" to="4546166"/>
    <trip id="75" depart="34.00" from="1931#1" to="-4084409"/>
    <trip id="76" depart="34.00" from="4215225#7" to="23282351#1"/>
    <trip id="77" depart="34.00" from="-30439933#0" to="-4405510#2"/>
    <trip id="78" depart="34.00" from="1189480#0" to="-4549119#2"/>
    <trip id="79" depart="35.00" from="4405505#1" to="421776737"/>
    <trip id="80" depart="38.00" from="300703990" to="2854823#1"/>
    <trip id="81" depart="38.00" from="-4379597" to="177698498#1"/>
    <trip id="82" depart="38.00" from="-4539387#1" to="-154527543#1"/>
    <trip id="83" depart="39.00" from="301042439#5" to="23471932#5"/>
    <trip id="84" depart="39.00" from="376633764#2" to="-694#1"/>
    <trip id="85" depart="39.00" from="-179690991#3" to="-4577386#0"/>
    <trip id="86" depart="39.00" from="-4437850#0" to="23227662#0"/>
    <trip id="87" depart="39.00" from="16414358#0" to="469802176#1"/>
    <trip id="88" depart="40.00" from="-1880964#5" to="303172175#4"/>
    <trip id="89" depart="40.00" from="-383977072#4" to="3084963#5"/>
    <trip id="90" depart="40.00" from="-4437749#3" to="154527543#9"/>
    <trip id="91" depart="41.00" from="23227532#0" to="-145484574#1"/>
    <trip id="92" depart="42.00" from="23170730#0" to="-4535819#0"/>
    <trip id="93" depart="43.00" from="-4546548#3" to="-145486045#0"/>
    <trip id="94" depart="43.00" from="-146363003#1" to="154342948#4"/>
    <trip id="95" depart="43.00" from="3996901#0" to="152463286#3"/>
    <trip id="96" depart="45.00" from="249381905#2" to="-4278971#1"/>
    <trip id="97" depart="46.00" from="-4706546#3" to="2290962#3"/>
    <trip id="98" depart="46.00" from="-2501903#0" to="-5948207"/>
    <trip id="99" depart="47.00" from="323527023" to="-8143483#1"/>
    <trip id="100" depart="47.00" from="124416949#1" to="124258654#0"/>
    <trip id="101" depart="48.00" from="-80753136" to="4437854#4"/>
    <trip id="102" depart="48.00" from="149396573#1" to="-1260098#7"/>
    <trip id="103" depart="49.00" from="1206026#0" to="80011559"/>
    <trip id="104" depart="49.00" from="-589527059" to="-323545635#4"/>
    <trip id="105" depart="49.00" from="145268911#22" to="4586116#3"/>
    <trip id="106" depart="50.00" from="-23247836#0" to="-311105587#7"/>
    <trip id="107" depart="51.00" from="109816416#0" to="-23282322"/>
    <trip id="108" depart="54.00" from="-1932#4" to="-15723788#2"/>
    <trip id="109" depart="54.00" from="300705352" to="-4540333#0"/>
    <trip id="110" depart="54.00" from="-4329703#0" to="-146275983#5"/>
    <trip id="111" depart="55.00" from="-86978770#0" to="23227662#1"/>
    <trip id="112" depart="55.00" from="177546792#1" to="3631232"/>
    <trip id="113" depart="56.00" from="-157070619" to="-145486025"/>
    <trip id="114" depart="56.00" from="-82111544#0" to="215236700#9"/>
    <trip id="115" depart="57.00" from="361387406#1" to="-300714624#6"/>
    <trip id="116" depart="57.00" from="561073936#1" to="4084428#2"/>
    <trip id="117" depart="57.00" from="-4546507#4" to="-3578758#4"/>
    <trip id="118" depart="57.00" from="-8430290#3" to="-225570436#1"/>
    <trip id="119" depart="57.00" from="-153260595#0" to="-300713094"/>
    <trip id="120" depart="58.00" from="-4215246#3" to="-97465563#0"/>
    <trip id="121" depart="58.00" from="9678651#0" to="8126614"/>
    <trip id="122" depart="58.00" from="300708553#7" to="-16431949#0"/>
    <trip id="123" depart="59.00" from="156860038#0" to="-124416945"/>
    <trip id="124" depart="59.00" from="4215235#1" to="-300713854"/>
    <trip id="125" depart="59.00" from="-4541326#1" to="310937896#1"/>
    <trip id="126" depart="59.00" from="4604563" to="460176000"/>
    <trip id="127" depart="60.00" from="10314687" to="82111471#0"/>
    <trip id="128" depart="61.00" from="-145884873#7" to="-2854832#4"/>
    <trip id="129" depart="62.00" from="146275983#0" to="1639354#7"/>
    <trip id="130" depart="62.00" from="23230344#0" to="-149396560#7"/>
    <trip id="131" depart="63.00" from="-3805999#0" to="-16414043"/>
    <trip id="132" depart="63.00" from="-82111810#12" to="89335226"/>
    <trip id="133" depart="64.00" from="-23470828#3" to="369547515#0"/>
    <trip id="134" depart="64.00" from="157070598#1" to="-3999828#3"/>
    <trip id="135" depart="64.00" from="-4074104" to="154470766#4"/>
    <trip id="136" depart="64.00" from="-8148508" to="-8148763#3"/>
    <trip id="137" depart="65.00" from="-4437508#2" to="-16414042#0"/>
    <trip id="138" depart="65.00" from="-149920734#6" to="460175999"/>
    <trip id="139" depart="65.00" from="4683723#5" to="15725501"/>
    <trip id="140" depart="66.00" from="-4539385#1" to="187831734#1"/>
    <trip id="141" depart="67.00" from="-369547520#4" to="153760709#1"/>
    <trip id="142" depart="67.00" from="153798216" to="4329703#0"/>
    <trip id="143" depart="68.00" from="-3998030#1" to="8150057"/>
    <trip id="144" depart="69.00" from="-146340148" to="2147558#2"/>
    <trip id="145" depart="69.00" from="-145486026#1" to="318496854"/>
    <trip id="146" depart="69.00" from="80353547" to="-3127995#1"/>
    <trip id="147" depart="70.00" from="-3987525#7" to="4546380#0"/>
    <trip id="148" depart="70.00" from="-2809605" to="-149396565#9"/>
    <trip id="149" depart="71.00" from="262297537" to="-386012836#0"/>
    <trip id="150" depart="73.00" from="4539220#6" to="15726490"/>
    <trip id="151" depart="73.00" from="146413577#10" to="-4698140#1"/>
    <trip id="152" depart="74.00" from="-383977073#0" to="-82111810#2"/>
    <trip id="153" depart="74.00" from="3358561" to="52082005#1"/>
    <trip id="154" depart="76.00" from="-177861959#1" to="-2953360#2"/>
    <trip id="155" depart="76.00" from="4437501#3" to="4585175#0"/>
    <trip id="156" depart="76.00" from="254486857#0" to="-3999832#8"/>
    <trip id="157" depart="77.00" from="4295851#11" to="28838036"/>
    <trip id="158" depart="78.00" from="-8137924#1" to="-16431967"/>
    <trip id="159" depart="78.00" from="-1639446#1" to="3296"/>
    <trip id="160" depart="78.00" from="239265830" to="153194977"/>
    <trip id="161" depart="78.00" from="-177861959#1" to="-369547521"/>
    <trip id="162" depart="78.00" from="-4329697#5" to="154391210#0"/>
    <trip id="163" depart="79.00" from="-429112849#1" to="-4077042#1"/>
    <trip id="164" depart="79.00" from="-4546167#0" to="-4015799#3"/>
    <trip id="165" depart="79.00" from="80631107#4" to="4437756"/>
    <trip id="166" depart="80.00" from="220096958#0" to="-97465561#0"/>
    <trip id="167" depart="80.00" from="4405511#0" to="15725189"/>
    <trip id="168" depart="80.00" from="92666214#1" to="-28528447#2"/>
    <trip id="169" depart="80.00" from="300708552#0" to="46800054#7"/>
    <trip id="170" depart="80.00" from="-25053180#4" to="146415022#2"/>
    <trip id="171" depart="82.00" from="124258674#2" to="-149920734#8"/>
    <trip id="172" depart="82.00" from="-1658#8" to="154400358"/>
    <trip id="173" depart="83.00" from="15723920#0" to="-152463285#10"/>
    <trip id="174" depart="83.00" from="28553217#0" to="4405510#3"/>
    <trip id="175" depart="84.00" from="-92384969#3" to="-303172176#2"/>
    <trip id="176" depart="85.00" from="-300714620" to="24307056#5"/>
    <trip id="177" depart="85.00" from="185309442" to="-146415966"/>
    <trip id="178" depart="86.00" from="4549114#1" to="239265815#1"/>
    <trip id="179" depart="87.00" from="145415095#0" to="-145268911#7"/>
    <trip id="180" depart="88.00" from="-303172702" to="4539982#2"/>
    <trip id="181" depart="88.00" from="3996903#4" to="15723788#0"/>
    <trip id="182" depart="89.00" from="-3999853#5" to="1260853#2"/>
    <trip id="183" depart="89.00" from="146416369#2" to="1661#0"/>
    <trip id="184" depart="90.00" from="4567932#0" to="223125118#2"/>
    <trip id="185" depart="90.00" from="28937862#2" to="4437749#5"/>
    <trip id="186" depart="90.00" from="169999411#4" to="4238069#1"/>
    <trip id="187" depart="90.00" from="28553431#2" to="-300713094"/>
    <trip id="188" depart="91.00" from="-4074112#2" to="70321501#0"/>
    <trip id="189" depart="91.00" from="3091879#8" to="8143481"/>
    <trip id="190" depart="91.00" from="-4604601#1" to="3084963#5"/>
    <trip id="191" depart="92.00" from="-4727629#1" to="146415022#5"/>
    <trip id="192" depart="92.00" from="9651162" to="154345655#1"/>
    <trip id="193" depart="92.00" from="70321501#0" to="-230582203#1"/>
    <trip id="194" depart="92.00" from="-23227565#2" to="-6169509#2"/>
    <trip id="195" depart="93.00" from="23798728#0" to="4271523#4"/>
    <trip id="196" depart="93.00" from="182076570" to="-4546379#0"/>
    <trip id="197" depart="93.00" from="1260586#1" to="-23281007#1"/>
    <trip id="198" depart="94.00" from="-87746923#0" to="30440139#6"/>
    <trip id="199" depart="96.00" from="369523082#7" to="-106285744#0"/>
    <trip id="200" depart="97.00" from="4546147#5" to="107035899#0"/>
    <trip id="201" depart="97.00" from="-4604515#1" to="-23227662#1"/>
    <trip id="202" depart="97.00" from="4546321#0" to="5072028#1"/>
    <trip id="203" depart="97.00" from="-4084404#1" to="4546453#0"/>
    <trip id="204" depart="98.00" from="3996897#2" to="4586116#2"/>
    <trip id="205" depart="98.00" from="4353806#2" to="4077034#4"/>
    <trip id="206" depart="99.00" from="-4084408#0" to="3996912#1"/>
    <trip id="207" depart="99.00" from="-92661858#8" to="123260689#5"/>
    <trip id="208" depart="100.00" from="4084408#0" to="154453554"/>
    <trip id="209" depart="100.00" from="-15723921#2" to="27117191"/>
    <trip id="210" depart="100.00" from="300708553#2" to="-2501904#4"/>
    <trip id="211" depart="101.00" from="4386800" to="145486040#2"/>
    <trip id="212" depart="102.00" from="1260293#5" to="8121937"/>
    <trip id="213" depart="104.00" from="-81543812#1" to="4546318#11"/>
    <trip id="214" depart="105.00" from="-89443941#1" to="-8119871#24"/>
    <trip id="215" depart="105.00" from="153760711#5" to="32925834#8"/>
    <trip id="216" depart="106.00" from="-243994319#1" to="124258661#7"/>
    <trip id="217" depart="106.00" from="96921751#6" to="2854815#1"/>
    <trip id="218" depart="106.00" from="-154397914#8" to="149396571#0"/>
    <trip id="219" depart="106.00" from="-154260655" to="-4077022#5"/>
    <trip id="220" depart="107.00" from="24307049#0" to="1260098#5"/>
    <trip id="221" depart="107.00" from="4539483#0" to="-3999140#1"/>
    <trip id="222" depart="107.00" from="-2778228#4" to="-4687259#1"/>
    <trip id="223" depart="107.00" from="154474072" to="145583171"/>
    <trip id="224" depart="107.00" from="8132235#0" to="-153795946#0"/>
    <trip id="225" depart="108.00" from="156860055#0" to="-4635714#0"/>
    <trip id="226" depart="109.00" from="145486330#1" to="-23221719"/>
    <trip id="227" depart="109.00" from="1671" to="-5948355#2"/>
    <trip id="228" depart="109.00" from="154357025#0" to="28553225#0"/>
    <trip id="229" depart="110.00" from="-27701889#1" to="145886309#3"/>
    <trip id="230" depart="110.00" from="-15723063" to="-303174610#2"/>
    <trip id="231" depart="110.00" from="4539473#1" to="-145686537#1"/>
    <trip id="232" depart="110.00" from="178181353" to="-157070623#3"/>
    <trip id="233" depart="111.00" from="-154407472#0" to="4549101#0"/>
    <trip id="234" depart="112.00" from="-4215232#0" to="2778228#0"/>
    <trip id="235" depart="112.00" from="-3880048#0" to="243103356"/>
    <trip id="236" depart="112.00" from="4077031#9" to="4437750#2"/>
    <trip id="237" depart="112.00" from="-151224669#27" to="-90217913#4"/>
    <trip id="238" depart="113.00" from="-3987524#3" to="4604637"/>
    <trip id="239" depart="113.00" from="1931#0" to="-146340139#4"/>
    <trip id="240" depart="113.00" from="97465563#0" to="145486038#0"/>
    <trip id="241" depart="114.00" from="-4546347#2" to="4077031#9"/>
    <trip id="242" depart="115.00" from="154308594" to="-15451501#0"/>
    <trip id="243" depart="115.00" from="-295641" to="-177112503"/>
    <trip id="244" depart="115.00" from="25149532#5" to="-1260098#0"/>
    <trip id="245" depart="116.00" from="369890236#1" to="4008600#0"/>
    <trip id="246" depart="116.00" from="-3999831#2" to="4586116#3"/>
    <trip id="247" depart="116.00" from="-4604560#1" to="23230328"/>
    <trip id="248" depart="117.00" from="1667#4" to="-177698503#3"/>
    <trip id="249" depart="117.00" from="-4539964#1" to="154345657#1"/>
    <trip id="250" depart="119.00" from="4546534#4" to="-23242083"/>
    <trip id="251" depart="120.00" from="-23221933#1" to="28034529#1"/>
    <trip id="252" depart="120.00" from="-3994505#0" to="-23282274#1"/>
    <trip id="253" depart="120.00" from="2501902" to="146416370#0"/>
    <trip id="254" depart="121.00" from="23785134#2" to="-386012836#0"/>
    <trip id="255" depart="121.00" from="-3578447#4" to="-154343741"/>
    <trip id="256" depart="122.00" from="141627844#1" to="-238310355"/>
    <trip id="257" depart="122.00" from="-23170579#2" to="-1260853#0"/>
    <trip id="258" depart="123.00" from="4329697#1" to="-8430253#0"/>
    <trip id="259" depart="123.00" from="146459740" to="-27142390#2"/>
    <trip id="260" depart="123.00" from="4020260#2" to="4082113#1"/>
    <trip id="261" depart="123.00" from="299668183#6" to="4579873"/>
    <trip id="262" depart="124.00" from="172066279#1" to="5072033"/>
    <trip id="263" depart="124.00" from="-23229967" to="175424984"/>
    <trip id="264" depart="124.00" from="-3274#2" to="4539385#3"/>
    <trip id="265" depart="124.00" from="-154470766#4" to="-4360463#6"/>
    <trip id="266" depart="125.00" from="25149532#0" to="4727634#10"/>
    <trip id="267" depart="125.00" from="-4539992#1" to="4546340#1"/>
    <trip id="268" depart="125.00" from="4546318#0" to="191261773#3"/>
    <trip id="269" depart="126.00" from="-4698140#2" to="300708558"/>
    <trip id="270" depart="127.00" from="-153260594#1" to="4546548#3"/>
    <trip id="271" depart="127.00" from="-146419320#1" to="-23242857#0"/>
    <trip id="272" depart="128.00" from="-262289409" to="145686537#0"/>
    <trip id="273" depart="129.00" from="1260196#3" to="153760715#1"/>
    <trip id="274" depart="129.00" from="-8123256#1" to="-156096027#0"/>
    <trip id="275" depart="129.00" from="-15724853" to="9674784#1"/>
    <trip id="276" depart="129.00" from="-3987528#1" to="239265813#0"/>
    <trip id="277" depart="130.00" from="-585908459#1" to="8123256#3"/>
    <trip id="278" depart="130.00" from="4567184" to="-361380145"/>
    <trip id="279" depart="131.00" from="-13251347#1" to="-154457399#0"/>
    <trip id="280" depart="132.00" from="41603137#0" to="158488672"/>
    <trip id="281" depart="133.00" from="14505561#0" to="153260596#0"/>
    <trip id="282" depart="133.00" from="-154470766#8" to="29058460#3"/>
    <trip id="283" depart="133.00" from="-3091879#9" to="23242878#1"/>
    <trip id="284" depart="134.00" from="-4279036#2" to="145486330#1"/>
    <trip id="285" depart="134.00" from="-6136575#0" to="-2494480#0"/>
    <trip id="286" depart="135.00" from="-300704011" to="3431519#4"/>
    <trip id="287" depart="135.00" from="8123256#2" to="15452370"/>
    <trip id="288" depart="136.00" from="80353082" to="-107035899#0"/>
    <trip id="289" depart="136.00" from="-8137930" to="-145484576#0"/>
    <trip id="290" depart="136.00" from="9676782#0" to="-3111328#1"/>
    <trip id="291" depart="137.00" from="4005406#1" to="-4437176#5"/>
    <trip id="292" depart="138.00" from="4379593#2" to="377834337"/>
    <trip id="293" depart="138.00" from="4437178#3" to="-178171562"/>
    <trip id="294" depart="138.00" from="300705354#0" to="149645813#7"/>
    <trip id="295" depart="138.00" from="-3129258" to="80522755#1"/>
    <trip id="296" depart="138.00" from="-38499512#1" to="145884884#2"/>
    <trip id="297" depart="139.00" from="-157071976#0" to="4077022#1"/>
    <trip id="298" depart="139.00" from="4360447#0" to="89335226"/>
    <trip id="299" depart="140.00" from="71586178" to="-16442184#2"/>
    <trip id="300" depart="141.00" from="89955272#3" to="-303174629"/>
    <trip id="301" depart="141.00" from="4687259#1" to="-4061534#0"/>
    <trip id="302" depart="141.00" from="5947665" to="-29058460#3"/>
    <trip id="303" depart="142.00" from="-28836122#1" to="-4077575#0"/>
    <trip id="304" depart="142.00" from="330364433" to="170114806"/>
    <trip id="305" depart="143.00" from="-4386898#1" to="145268911#18"/>
    <trip id="306" depart="143.00" from="-145884863#1" to="154470766#0"/>
    <trip id="307" depart="144.00" from="157071979#0" to="-145690675#5"/>
    <trip id="308" depart="144.00" from="-146275983#11" to="4546167#0"/>
    <trip id="309" depart="145.00" from="3999318#7" to="4437898"/>
    <trip id="310" depart="147.00" from="15450955#0" to="60024488#2"/>
    <trip id="311" depart="149.00" from="4437962" to="-4015800#5"/>
    <trip id="312" depart="149.00" from="23470866" to="-16431945#0"/>
    <trip id="313" depart="150.00" from="30838560#6" to="-3996899#2"/>
    <trip id="314" depart="150.00" from="4546147#2" to="145886513#1"/>
    <trip id="315" depart="150.00" from="-249381925" to="-3084954#4"/>
    <trip id="316" depart="150.00" from="-16442184#2" to="283698526"/>
    <trip id="317" depart="150.00" from="138914428#0" to="303172176#0"/>
    <trip id="318" depart="151.00" from="30440075#1" to="-4405505#0"/>
    <trip id="319" depart="151.00" from="-10556195" to="-4436894"/>
    <trip id="320" depart="151.00" from="145583157#0" to="589527059"/>
    <trip id="321" depart="151.00" from="-154451912" to="-145886304"/>
    <trip id="322" depart="152.00" from="-4687172#1" to="-10568674"/>
    <trip id="323" depart="152.00" from="4083483#0" to="-28553431#4"/>
    <trip id="324" depart="153.00" from="-28553532" to="-24299019#1"/>
    <trip id="325" depart="153.00" from="23159925#1" to="-29058774#5"/>
    <trip id="326" depart="154.00" from="-4043822#1" to="146340144#8"/>
    <trip id="327" depart="154.00" from="10556558" to="188468748#0"/>
    <trip id="328" depart="154.00" from="-15451501#0" to="-1639458#1"/>
    <trip id="329" depart="155.00" from="152463287#4" to="4625938"/>
    <trip id="330" depart="155.00" from="-300705354#3" to="-154340673#0"/>
    <trip id="331" depart="155.00" from="-23222047#0" to="28528447#3"/>
    <trip id="332" depart="156.00" from="4546064#1" to="4077027#0"/>
    <trip id="333" depart="158.00" from="15724852#1" to="153760711#0"/>
    <trip id="334" depart="158.00" from="-154453555#2" to="9676784#3"/>
    <trip id="335" depart="159.00" from="220097880#1" to="151224667#3"/>
    <trip id="336" depart="159.00" from="-300714619#2" to="15452223#1"/>
    <trip id="337" depart="160.00" from="-149920734#0" to="4077023#5"/>
    <trip id="338" depart="161.00" from="4437755#0" to="4278989#0"/>
    <trip id="339" depart="161.00" from="145486329#0" to="3088262"/>
    <trip id="340" depart="162.00" from="-153178075" to="-28528319#2"/>
    <trip id="341" depart="163.00" from="23221932" to="3999853#3"/>
    <trip id="342" depart="163.00" from="4405515#0" to="3290"/>
    <trip id="343" depart="164.00" from="-23230263" to="-4015806#1"/>
    <trip id="344" depart="165.00" from="146416374" to="239265834"/>
    <trip id="345" depart="165.00" from="-4800838#0" to="10518474"/>
    <trip id="346" depart="165.00" from="-28837341#1" to="-152463288#8"/>
    <trip id="347" depart="166.00" from="-300714624#2" to="4536331#0"/>
    <trip id="348" depart="166.00" from="4215246#0" to="-4360454#4"/>
    <trip id="349" depart="166.00" from="-28553217#2" to="-1924#5"/>
    <trip id="350" depart="167.00" from="-4405510#3" to="194826607#5"/>
    <trip id="351" depart="168.00" from="1932#11" to="80628851#0"/>
    <trip id="352" depart="168.00" from="-3084956" to="8123569"/>
    <trip id="353" depart="169.00" from="145693261#0" to="-87193465#0"/>
    <trip id="354" depart="169.00" from="4077023#8" to="390807194"/>
    <trip id="355" depart="169.00" from="1260098#3" to="15723063"/>
    <trip id="356" depart="170.00" from="-152463285#10" to="-16431955#1"/>
    <trip id="357" depart="170.00" from="300710523" to="4636151#1"/>
    <trip id="358" depart="170.00" from="31372522#0" to="96199874"/>
    <trip id="359" depart="170.00" from="-224336428#1" to="-4077025#8"/>
    <trip id="360" depart="171.00" from="-239265814#0" to="3999847"/>
    <trip id="361" depart="174.00" from="-4329572#2" to="4077037"/>
    <trip id="362" depart="174.00" from="-145583158#5" to="-80633196#5"/>
    <trip id="363" depart="174.00" from="153794234" to="156096027#0"/>
    <trip id="364" depart="174.00" from="303172174#1" to="176689011"/>
    <trip id="365" depart="175.00" from="-300714624#2" to="-8430299"/>
    <trip id="366" depart="175.00" from="2501903#3" to="-145823585#2"/>
    <trip id="367" depart="175.00" from="2573933#0" to="138914429"/>
    <trip id="368" depart="176.00" from="153260604#1" to="10361719#0"/>
    <trip id="369" depart="177.00" from="154397904" to="-3996906#4"/>
    <trip id="370" depart="178.00" from="15724653#0" to="-156860038#3"/>
    <trip id="371" depart="178.00" from="124258661#2" to="-191744930"/>
    <trip id="372" depart="178.00" from="-80624595#1" to="154356742#0"/>
    <trip id="373" depart="180.00" from="152463287#1" to="28553298"/>
    <trip id="374" depart="181.00" from="-154452532" to="23894349"/>
    <trip id="375" depart="182.00" from="-149643069#0" to="-154260655"/>
    <trip id="376" depart="183.00" from="-220096958#0" to="-1189534"/>
    <trip id="377" depart="183.00" from="149643069#0" to="194826605#2"/>
    <trip id="378" depart="183.00" from="-3999854#1" to="-82112559"/>
    <trip id="379" depart="183.00" from="-3910609#1" to="5947663#0"/>
    <trip id="380" depart="183.00" from="92661858#15" to="229082191#1"/>
    <trip id="381" depart="184.00" from="-145690654#4" to="23230266"/>
    <trip id="382" depart="185.00" from="-4333405#2" to="15722708#0"/>
    <trip id="383" depart="185.00" from="10556614#1" to="300713092"/>
    <trip id="384" depart="186.00" from="-2234" to="177542052#0"/>
    <trip id="385" depart="187.00" from="-154400354#2" to="145583149#1"/>
    <trip id="386" depart="188.00" from="-4546147#10" to="-177112505#0"/>
    <trip id="387" depart="188.00" from="-4546176#1" to="-156861347#0"/>
    <trip id="388" depart="189.00" from="-4539473#5" to="148349920#1"/>
    <trip id="389" depart="189.00" from="23230163#14" to="340093264#1"/>
    <trip id="390" depart="189.00" from="3677107#0" to="28553231#1"/>
    <trip id="391" depart="189.00" from="146340141" to="-296670137#0"/>
    <trip id="392" depart="189.00" from="3819432#0" to="231509500#0"/>
    <trip id="393" depart="190.00" from="4405506#10" to="146340144#1"/>
    <trip id="394" depart="190.00" from="-19799989" to="-80633196#3"/>
    <trip id="395" depart="191.00" from="-4546150#0" to="-3999850"/>
    <trip id="396" depart="191.00" from="-8137930" to="8148762#0"/>
    <trip id="397" depart="191.00" from="-8148762#4" to="4437178#3"/>
    <trip id="398" depart="192.00" from="8124144#0" to="-179618800#0"/>
    <trip id="399" depart="192.00" from="369523082#4" to="4539332"/>
    <trip id="400" depart="192.00" from="243994310#1" to="154453554"/>
    <trip id="401" depart="192.00" from="2854829" to="-145484550"/>
    <trip id="402" depart="193.00" from="-154473881#1" to="-13250943#2"/>
    <trip id="403" depart="194.00" from="-150771749#1" to="28553278#2"/>
    <trip id="404" depart="194.00" from="-145484574#2" to="146415022#1"/>
    <trip id="405" depart="194.00" from="15452722#2" to="-311105587#9"/>
    <trip id="406" depart="194.00" from="-146275981#4" to="82111810#4"/>
    <trip id="407" depart="194.00" from="8121524#0" to="-4333405#4"/>
    <trip id="408" depart="194.00" from="-390040505#0" to="4546165#3"/>
    <trip id="409" depart="195.00" from="-28553217#6" to="109371193#1"/>
    <trip id="410" depart="197.00" from="32056953" to="-4353804#2"/>
    <trip id="411" depart="197.00" from="-153801826#6" to="-29058046#2"/>
    <trip id="412" depart="197.00" from="4687633#0" to="50484162#0"/>
    <trip id="413" depart="198.00" from="-32925834#0" to="300708553#8"/>
    <trip id="414" depart="199.00" from="3091879#2" to="3084963#3"/>
    <trip id="415" depart="199.00" from="-4546156#3" to="-8430283#0"/>
    <trip id="416" depart="200.00" from="-15725429#1" to="3281#0"/>
    <trip id="417" depart="200.00" from="157071980#2" to="-3999138#3"/>
    <trip id="418" depart="201.00" from="3091883#2" to="23170730#3"/>
    <trip id="419" depart="202.00" from="82110464#6" to="16431941"/>
    <trip id="420" depart="202.00" from="-1639470#2" to="-154336053"/>