<?xml version="1.0" encoding="UTF-8"?>
<!-- generated on 2018-08-12 00:30:14.268170 by $Id$
  options: -n southampton.net.xml -e 7200 <doubleminus>fringe-factor 1 <doubleminus>period 0.205 <doubleminus>binomial 30 <doubleminus>min-distance 1000 <doubleminus>route-file routes_southampton_10.xml
-->
<routes xmlns:xsi="http://www.w3.org/2001/XMLSchema-instance" xsi:noNamespaceSchemaLocation="http://sumo.dlr.de/xsd/routes_file.xsd">
    <trip id="0" depart="0.00" from="4342668#0" to="151225542#0"/>
    <trip id="1" depart="0.00" from="13251408" to="-4687633#0"/>
    <trip id="2" depart="0.00" from="-4539474#0" to="154473883#0"/>
    <trip id="3" depart="0.00" from="154470771" to="460175998#1"/>
    <trip id="4" depart="1.00" from="154350205" to="239265828"/>
    <trip id="5" depart="1.00" from="3999836" to="154527543#12"/>
    <trip id="6" depart="1.00" from="16414358#2" to="145686544#16"/>
    <trip id="7" depart="1.00" from="-15722531#0" to="-300713851#2"/>
    <trip id="8" depart="1.00" from="4329697#5" to="-3281#2"/>
    <trip id="9" depart="2.00" from="210791345#0" to="4329572#0"/>
    <trip id="10" depart="2.00" from="300710522" to="31372524#0"/>
    <trip id="11" depart="2.00" from="205004431" to="29058774#5"/>
    <trip id="12" depart="2.00" from="300707941" to="23282322"/>
    <trip id="13" depart="3.00" from="-154340674#5" to="239265817"/>
    <trip id="14" depart="3.00" from="-6122671#4" to="-87746923#2"/>
    <trip id="15" depart="3.00" from="23230163#10" to="-2854834#0"/>
    <trip id="16" depart="3.00" from="224917540" to="-4278971#1"/>
    <trip id="17" depart="3.00" from="354333344" to="-431544069#1"/>
    <trip id="18" depart="3.00" from="-28528205#1" to="4269319#0"/>
    <trip id="19" depart="4.00" from="-4585179" to="146363000#0"/>
    <trip id="20" depart="4.00" from="28837341#0" to="-4278990#1"/>
    <trip id="21" depart="4.00" from="28528447#3" to="9660163"/>
    <trip id="22" depart="4.00" from="80624611" to="23241208#0"/>
    <trip id="23" depart="5.00" from="-1639633#5" to="-4043822#1"/>
    <trip id="24" depart="5.00" from="-145884873#4" to="174607438#2"/>
    <trip id="25" depart="5.00" from="2651606#0" to="15724655"/>
    <trip id="26" depart="5.00" from="-4437759#0" to="145484592#0"/>
    <trip id="27" depart="5.00" from="154470766#5" to="-3431519#2"/>
    <trip id="28" depart="6.00" from="-94069827" to="4437852"/>
    <trip id="29" depart="6.00" from="4405505#0" to="4077026#3"/>
    <trip id="30" depart="6.00" from="3999147" to="153931260#3"/>
    <trip id="31" depart="6.00" from="4084408#2" to="145686535#1"/>
    <trip id="32" depart="7.00" from="-4698138#2" to="82208288"/>
    <trip id="33" depart="7.00" from="-4079315#4" to="-154400951#1"/>
    <trip id="34" depart="7.00" from="4567245#9" to="4061546#0"/>
    <trip id="35" depart="7.00" from="-6136574#2" to="8250663"/>
    <trip id="36" depart="8.00" from="145691548#0" to="149396567#7"/>
    <trip id="37" depart="8.00" from="28937862#1" to="-23242883"/>
    <trip id="38" depart="8.00" from="224336429#0" to="-361576228#3"/>
    <trip id="39" depart="8.00" from="1259986#4" to="3999140#2"/>
    <trip id="40" depart="9.00" from="-4015799#2" to="89968538"/>
    <trip id="41" depart="9.00" from="1656#0" to="-146276551"/>
    <trip id="42" depart="9.00" from="10519891#0" to="-145268911#12"/>
    <trip id="43" depart="9.00" from="-154337544#0" to="71736953"/>
    <trip id="44" depart="9.00" from="-23230353#1" to="31735997#0"/>
    <trip id="45" depart="9.00" from="-31735997#4" to="-148349923#1"/>
    <trip id="46" depart="10.00" from="1260196#2" to="184937237#2"/>
    <trip id="47" depart="10.00" from="-4437176#5" to="3806000#2"/>
    <trip id="48" depart="10.00" from="23458243#0" to="145583166#1"/>
    <trip id="49" depart="10.00" from="-153931260#3" to="4437751#1"/>
    <trip id="50" depart="10.00" from="-4604641" to="146415962#1"/>
    <trip id="51" depart="10.00" from="-154341130" to="187831734#3"/>
    <trip id="52" depart="11.00" from="4546342#0" to="-1880964#4"/>
    <trip id="53" depart="11.00" from="23370699#0" to="-154527548#3"/>
    <trip id="54" depart="11.00" from="-300705341" to="152633254"/>
    <trip id="55" depart="12.00" from="-13250787#3" to="4360462#0"/>
    <trip id="56" depart="12.00" from="-4536689#2" to="4604638"/>
    <trip id="57" depart="12.00" from="16431947#2" to="-152463285#6"/>
    <trip id="58" depart="13.00" from="-24626165" to="-15452226#0"/>
    <trip id="59" depart="13.00" from="-4549096#1" to="5041388#0"/>
    <trip id="60" depart="13.00" from="145690675#6" to="-243994302#2"/>
    <trip id="61" depart="13.00" from="-4437501#0" to="-23242852#1"/>
    <trip id="62" depart="13.00" from="-4687599#1" to="-89700061#1"/>
    <trip id="63" depart="14.00" from="156861347#0" to="2290962#2"/>
    <trip id="64" depart="14.00" from="153760709#0" to="-4215239#1"/>
    <trip id="65" depart="14.00" from="-4585182" to="152463287#4"/>
    <trip id="66" depart="14.00" from="-8123256#3" to="23282322"/>
    <trip id="67" depart="15.00" from="4386802#0" to="3996899#2"/>
    <trip id="68" depart="16.00" from="104952667#1" to="4005421#0"/>
    <trip id="69" depart="16.00" from="29058046#2" to="145884873#7"/>
    <trip id="70" depart="16.00" from="-15452370" to="-386012836#1"/>
    <trip id="71" depart="17.00" from="-5948356" to="-28553440"/>
    <trip id="72" depart="17.00" from="4295844#5" to="9651712#0"/>
    <trip id="73" depart="17.00" from="-23490296#1" to="-3999147"/>
    <trip id="74" depart="17.00" from="28553527#0" to="145486334#1"/>
    <trip id="75" depart="17.00" from="4551446#0" to="146459736#0"/>
    <trip id="76" depart="18.00" from="-15724198#1" to="32056953"/>
    <trip id="77" depart="18.00" from="150771747#2" to="369529587"/>
    <trip id="78" depart="18.00" from="303174610#1" to="28835740#5"/>
    <trip id="79" depart="19.00" from="3996908#1" to="4077022#8"/>
    <trip id="80" depart="19.00" from="-4386801#0" to="241589936"/>
    <trip id="81" depart="19.00" from="-154528386#0" to="300708552#0"/>
    <trip id="82" depart="19.00" from="529212145" to="6136574#5"/>
    <trip id="83" depart="19.00" from="-4313901#2" to="-145268911#12"/>
    <trip id="84" depart="19.00" from="154527548#0" to="8307811"/>
    <trip id="85" depart="20.00" from="4539433" to="154397892#1"/>
    <trip id="86" depart="20.00" from="178669147#0" to="-146340142"/>
    <trip id="87" depart="20.00" from="150771749#0" to="145884873#0"/>
    <trip id="88" depart="20.00" from="-4360454#3" to="2854825#0"/>
    <trip id="89" depart="20.00" from="1692#1" to="-146340144#0"/>
    <trip id="90" depart="21.00" from="3431519#2" to="123260689#3"/>
    <trip id="91" depart="21.00" from="-146362992" to="8119875#0"/>
    <trip id="92" depart="21.00" from="4546550" to="-154039136#2"/>
    <trip id="93" depart="21.00" from="29058466" to="386012835#0"/>
    <trip id="94" depart="21.00" from="145886302" to="-239265848#2"/>
    <trip id="95" depart="22.00" from="141655915#2" to="-16610266#3"/>
    <trip id="96" depart="22.00" from="154527548#1" to="15722708#3"/>
    <trip id="97" depart="22.00" from="-46578541#1" to="-150362647"/>
    <trip id="98" depart="22.00" from="4008584#4" to="4589164#2"/>
    <trip id="99" depart="22.00" from="4254566#0" to="3996914"/>
    <trip id="100" depart="23.00" from="-175858085#0" to="-146413581"/>
    <trip id="101" depart="23.00" from="4539437#0" to="4215228#3"/>
    <trip id="102" depart="23.00" from="239265847" to="-154356742#0"/>
    <trip id="103" depart="23.00" from="153260596#5" to="8123249"/>
    <trip id="104" depart="24.00" from="29058046#2" to="4567932#1"/>
    <trip id="105" depart="24.00" from="220290152" to="-23470559"/>
    <trip id="106" depart="24.00" from="8148388#0" to="-15725191#1"/>
    <trip id="107" depart="24.00" from="-2854838#0" to="168275746#0"/>
    <trip id="108" depart="24.00" from="188468744#1" to="282030910#1"/>
    <trip id="109" depart="25.00" from="-4539384" to="-23222047#1"/>
    <trip id="110" depart="25.00" from="266027893#1" to="-4546370"/>
    <trip id="111" depart="25.00" from="-10556417#2" to="154527543#12"/>
    <trip id="112" depart="25.00" from="138914434" to="-4437755#4"/>
    <trip id="113" depart="25.00" from="-10361744#7" to="15724855#1"/>
    <trip id="114" depart="25.00" from="-8430275" to="4005412#0"/>
    <trip id="115" depart="25.00" from="5948355#1" to="-23227615#3"/>
    <trip id="116" depart="25.00" from="-23785134#1" to="28835783#0"/>
    <trip id="117" depart="26.00" from="138914427#0" to="-4546374#1"/>
    <trip id="118" depart="26.00" from="4405507#0" to="1639354#5"/>
    <trip id="119" depart="26.00" from="1679#1" to="-2501904#2"/>
    <trip id="120" depart="27.00" from="2147865#4" to="-154350204#2"/>
    <trip id="121" depart="27.00" from="154527548#4" to="146415962#2"/>
    <trip id="122" depart="27.00" from="529212145" to="1936#2"/>
    <trip id="123" depart="28.00" from="-4313901#5" to="4269327#0"/>
    <trip id="124" depart="28.00" from="-4295851#6" to="23282786"/>
    <trip id="125" depart="28.00" from="-4077575#4" to="-1936#4"/>
    <trip id="126" depart="28.00" from="-13251408" to="-4546511#1"/>
    <trip id="127" depart="28.00" from="-4005412#0" to="4269326#1"/>
    <trip id="128" depart="29.00" from="156860046#0" to="110289644#1"/>
    <trip id="129" depart="29.00" from="-23223351#3" to="4536327"/>
    <trip id="130" depart="29.00" from="-157071980#0" to="-23281142#0"/>
    <trip id="131" depart="29.00" from="386012836#0" to="-15450955#1"/>
    <trip id="132" depart="29.00" from="-154318112" to="231236388"/>
    <trip id="133" depart="29.00" from="-3631344#5" to="4546165#3"/>
    <trip id="134" depart="30.00" from="8125058#0" to="4539483#2"/>
    <trip id="135" depart="30.00" from="-4539483#1" to="1925#0"/>
    <trip id="136" depart="30.00" from="95946607#0" to="4706545#0"/>
    <trip id="137" depart="30.00" from="14505888" to="-23221862#8"/>
    <trip id="138" depart="31.00" from="-4215236" to="4546147#5"/>
    <trip id="139" depart="32.00" from="50280676#1" to="-10360749"/>
    <trip id="140" depart="32.00" from="4574131#0" to="-4604564#0"/>
    <trip id="141" depart="32.00" from="-253350847#2" to="3631233#0"/>
    <trip id="142" depart="32.00" from="-23186667#2" to="3578449#2"/>
    <trip id="143" depart="33.00" from="5072033" to="-160780519"/>
    <trip id="144" depart="33.00" from="145268911#2" to="-154318112"/>
    <trip id="145" depart="33.00" from="8143483#1" to="-176730093#0"/>
    <trip id="146" depart="33.00" from="23282302#0" to="-23370837#5"/>
    <trip id="147" depart="34.00" from="13251144#0" to="-4535821"/>
    <trip id="148" depart="34.00" from="-328626007#1" to="-38499512#1"/>
    <trip id="149" depart="35.00" from="-145486045#1" to="154407472#6"/>
    <trip id="150" depart="35.00" from="-8120150#2" to="145484565#1"/>
    <trip id="151" depart="36.00" from="124258719#2" to="-8430290#1"/>
    <trip id="152" depart="36.00" from="4008575#0" to="239265836"/>
    <trip id="153" depart="36.00" from="3091879#27" to="3358563"/>
    <trip id="154" depart="36.00" from="-1260098#0" to="-4269312#0"/>
    <trip id="155" depart="36.00" from="-82110206#0" to="-4379593#10"/>
    <trip id="156" depart="36.00" from="4437757#0" to="-128124559#2"/>
    <trip id="157" depart="37.00" from="-8125061#1" to="-3273#4"/>
    <trip id="158" depart="37.00" from="-89953964#4" to="-239265824"/>
    <trip id="159" depart="38.00" from="-170114806" to="8119970"/>
    <trip id="160" depart="38.00" from="-2854818#1" to="70321501#4"/>
    <trip id="161" depart="38.00" from="-4635653" to="296670137#0"/>
    <trip id="162" depart="38.00" from="53026565#0" to="146340137"/>
    <trip id="163" depart="38.00" from="-23227550" to="444382277#1"/>
    <trip id="164" depart="39.00" from="51549290" to="-4546064#0"/>
    <trip id="165" depart="39.00" from="-146340144#1" to="-153931260#5"/>
    <trip id="166" depart="39.00" from="3999321#1" to="4215228#3"/>
    <trip id="167" depart="40.00" from="-149581046#1" to="-3996900#6"/>
    <trip id="168" depart="40.00" from="-3578750#5" to="460175489"/>
    <trip id="169" depart="40.00" from="-23458198#2" to="4329696#3"/>
    <trip id="170" depart="40.00" from="-15722941" to="-23241215#1"/>
    <trip id="171" depart="41.00" from="-4015804#3" to="-2494480#0"/>
    <trip id="172" depart="41.00" from="4015821#2" to="146363003#1"/>
    <trip id="173" depart="41.00" from="23370456#0" to="-152463288#6"/>
    <trip id="174" depart="41.00" from="4580513#0" to="-4635653"/>
    <trip id="175" depart="41.00" from="3091883#2" to="149396567#7"/>
    <trip id="176" depart="41.00" from="2147858#0" to="-23221719"/>
    <trip id="177" depart="41.00" from="4015825#2" to="-4269326#0"/>
    <trip id="178" depart="42.00" from="8135481" to="4549119#1"/>
    <trip id="179" depart="42.00" from="3677107#0" to="-16414510#0"/>
    <trip id="180" depart="42.00" from="4536700" to="-311105587#11"/>
    <trip id="181" depart="42.00" from="146415962#0" to="-131388091#2"/>
    <trip id="182" depart="42.00" from="28553602#0" to="194403287#3"/>
    <trip id="183" depart="43.00" from="106551393" to="82111810#11"/>
    <trip id="184" depart="43.00" from="145686537#11" to="177364070#0"/>
    <trip id="185" depart="43.00" from="-23490306#1" to="8131500"/>
    <trip id="186" depart="44.00" from="-4727659" to="3996900#5"/>
    <trip id="187" depart="44.00" from="-303174633#1" to="3431519#6"/>
    <trip id="188" depart="44.00" from="146275983#5" to="-4727634#1"/>
    <trip id="189" depart="44.00" from="3578449#0" to="4269307"/>
    <trip id="190" depart="45.00" from="-145484593" to="224311125#1"/>
    <trip id="191" depart="45.00" from="23470074#1" to="23223351#3"/>
    <trip id="192" depart="45.00" from="145886313" to="185010593#0"/>
    <trip id="193" depart="46.00" from="-4005409#3" to="10556219#1"/>
    <trip id="194" depart="47.00" from="-55337486#1" to="-4329696#0"/>
    <trip id="195" depart="47.00" from="-24307049#1" to="4695886"/>
    <trip id="196" depart="47.00" from="28835740#0" to="-146415022#3"/>
    <trip id="197" depart="48.00" from="-2854838#2" to="-23318488#3"/>
    <trip id="198" depart="48.00" from="-145693296#2" to="345043302#0"/>
    <trip id="199" depart="48.00" from="154075501#10" to="154344530#2"/>
    <trip id="200" depart="48.00" from="154341129#1" to="-110289644#0"/>
    <trip id="201" depart="48.00" from="15942062#0" to="145484556"/>
    <trip id="202" depart="49.00" from="-2854832#1" to="-1206026#1"/>
    <trip id="203" depart="49.00" from="4077026#1" to="-304275921"/>
    <trip id="204" depart="49.00" from="-4082119#3" to="-146415022#5"/>
    <trip id="205" depart="49.00" from="-3084963#5" to="82111544#2"/>
    <trip id="206" depart="49.00" from="-154343742#1" to="28528447#1"/>
    <trip id="207" depart="50.00" from="3084963#5" to="183432093#0"/>
    <trip id="208" depart="50.00" from="4437845#1" to="4279035#1"/>
    <trip id="209" depart="50.00" from="-183432101#1" to="-9703608#1"/>
    <trip id="210" depart="50.00" from="145690669#15" to="-192651854#0"/>
    <trip id="211" depart="50.00" from="-300708556#4" to="-15722528"/>
    <trip id="212" depart="50.00" from="-253350846" to="-3999140#4"/>
    <trip id="213" depart="50.00" from="9676785#0" to="-4577383#2"/>
    <trip id="214" depart="51.00" from="4437534" to="4295838"/>
    <trip id="215" depart="51.00" from="-13250787#1" to="-145484584#0"/>
    <trip id="216" depart="51.00" from="-185008002#0" to="23785134#1"/>
    <trip id="217" depart="51.00" from="15722113#3" to="-8129546"/>
    <trip id="218" depart="51.00" from="421776735" to="1260853#5"/>
    <trip id="219" depart="52.00" from="-4215242#1" to="-311105581#1"/>
    <trip id="220" depart="52.00" from="-176728690" to="153931835"/>
    <trip id="221" depart="52.00" from="-15452722#2" to="-30838560#4"/>
    <trip id="222" depart="52.00" from="-1667#4" to="146459742#0"/>
    <trip id="223" depart="52.00" from="4698174#1" to="-23318488#1"/>
    <trip id="224" depart="53.00" from="1259986#5" to="-4540333#1"/>
    <trip id="225" depart="54.00" from="-4635652#3" to="96198546#3"/>
    <trip id="226" depart="54.00" from="-16414042#2" to="2501907"/>
    <trip id="227" depart="54.00" from="-16431964#1" to="-4278971#0"/>
    <trip id="228" depart="54.00" from="-23221862#8" to="198483339#0"/>
    <trip id="229" depart="55.00" from="-1260293#2" to="4549088#2"/>
    <trip id="230" depart="55.00" from="4585158" to="-1260853#0"/>
    <trip id="231" depart="55.00" from="4546158#1" to="15959055#1"/>
    <trip id="232" depart="55.00" from="4727654" to="-300705344#0"/>
    <trip id="233" depart="55.00" from="154407472#0" to="2854815#0"/>
    <trip id="234" depart="55.00" from="28553431#1" to="4546173#0"/>
    <trip id="235" depart="56.00" from="-153760715#2" to="4084417#0"/>
    <trip id="236" depart="56.00" from="-23490304#1" to="-15724856"/>
    <trip id="237" depart="56.00" from="23159925#0" to="23221933#0"/>
    <trip id="238" depart="56.00" from="152463287#6" to="-4546548#4"/>
    <trip id="239" depart="56.00" from="-23229961#0" to="-4635652#0"/>
    <trip id="240" depart="56.00" from="4077576" to="-90217913#3"/>
    <trip id="241" depart="56.00" from="-9652509#0" to="145486035"/>
    <trip id="242" depart="57.00" from="-1932#9" to="154309348"/>
    <trip id="243" depart="57.00" from="1639405#4" to="-157071976#0"/>
    <trip id="244" depart="57.00" from="-3677086#1" to="25149532#11"/>
    <trip id="245" depart="57.00" from="-358792745#0" to="2854830#0"/>
    <trip id="246" depart="57.00" from="-23242847#1" to="-154075497#3"/>
    <trip id="247" depart="57.00" from="169614814#0" to="-152463285#6"/>
    <trip id="248" depart="58.00" from="146363003#1" to="-15724854#0"/>
    <trip id="249" depart="58.00" from="4084408#4" to="10519891#2"/>
    <trip id="250" depart="58.00" from="-3999854#2" to="-8148763#0"/>
    <trip id="251" depart="59.00" from="-4008572#2" to="96199871#2"/>
    <trip id="252" depart="60.00" from="226615912" to="23186667#3"/>
    <trip id="253" depart="60.00" from="-4569978" to="4077022#7"/>
    <trip id="254" depart="60.00" from="-16414042#0" to="1639470#4"/>
    <trip id="255" depart="61.00" from="-4074106#0" to="146275983#6"/>
    <trip id="256" depart="61.00" from="6122671#3" to="97465556"/>
    <trip id="257" depart="61.00" from="-369547520#2" to="-239265814#0"/>
    <trip id="258" depart="61.00" from="390040505#0" to="-16431954#0"/>
    <trip id="259" depart="61.00" from="4580514" to="2854830#0"/>
    <trip id="260" depart="62.00" from="3314#2" to="-4635650#0"/>
    <trip id="261" depart="62.00" from="328364099#1" to="-4539385#0"/>
    <trip id="262" depart="63.00" from="-4078456#0" to="328364100"/>
    <trip id="263" depart="63.00" from="-15452722#0" to="-4043822#1"/>
    <trip id="264" depart="63.00" from="239265830" to="154341626#2"/>
    <trip id="265" depart="63.00" from="154336258" to="-4215238#0"/>
    <trip id="266" depart="63.00" from="300714624#0" to="-4539975#0"/>
    <trip id="267" depart="64.00" from="28836063" to="153191973"/>
    <trip id="268" depart="64.00" from="-4569973#1" to="4078454#2"/>
    <trip id="269" depart="64.00" from="-4535821" to="4074137#0"/>
    <trip id="270" depart="64.00" from="-299652106#1" to="-4437586#0"/>
    <trip id="271" depart="64.00" from="-3907168" to="-23227615#3"/>
    <trip id="272" depart="64.00" from="3999838#0" to="82111544#2"/>
    <trip id="273" depart="64.00" from="-153760711#4" to="-358792740#1"/>
    <trip id="274" depart="64.00" from="92384964" to="-71584878"/>
    <trip id="275" depart="65.00" from="243103357" to="-1639470#4"/>
    <trip id="276" depart="65.00" from="-4363109#0" to="-303174610#1"/>
    <trip id="277" depart="65.00" from="-146413580#1" to="-4604600#1"/>
    <trip id="278" depart="65.00" from="70321501#1" to="4269326#2"/>
    <trip id="279" depart="66.00" from="-2854832#1" to="-4546466"/>
    <trip id="280" depart="66.00" from="-4546478#1" to="48046686"/>
    <trip id="281" depart="66.00" from="23247836#1" to="421779099"/>
    <trip id="282" depart="66.00" from="-4569985" to="310937896#2"/>
    <trip id="283" depart="66.00" from="82088548#0" to="328774870#0"/>
    <trip id="284" depart="67.00" from="119883446#0" to="87746923#0"/>
    <trip id="285" depart="67.00" from="4437754" to="230582203#0"/>
    <trip id="286" depart="67.00" from="97465567#0" to="9652508#1"/>
    <trip id="287" depart="67.00" from="1260196#0" to="-3999282#1"/>
    <trip id="288" depart="67.00" from="4215238#0" to="25053180#1"/>
    <trip id="289" depart="67.00" from="4074124#1" to="-84760225"/>
    <trip id="290" depart="67.00" from="-300705349#7" to="-146275983#5"/>
    <trip id="291" depart="67.00" from="-469802177#3" to="3266"/>
    <trip id="292" depart="67.00" from="-15726490" to="-94069829#0"/>
    <trip id="293" depart="68.00" from="-153760709#4" to="2854811#3"/>
    <trip id="294" depart="68.00" from="145484572#0" to="-154405818#2"/>
    <trip id="295" depart="68.00" from="158420280#8" to="-177037842#0"/>
    <trip id="296" depart="68.00" from="-3996900#5" to="-296670137#2"/>
    <trip id="297" depart="68.00" from="89959309#2" to="-177369456"/>
    <trip id="298" depart="68.00" from="-3578750#7" to="303174610#2"/>
    <trip id="299" depart="68.00" from="-1639470#2" to="-23281446#1"/>
    <trip id="300" depart="68.00" from="23222047#0" to="-156860048#6"/>
    <trip id="301" depart="68.00" from="239265814#1" to="4546453#1"/>
    <trip id="302" depart="69.00" from="215236700#5" to="-282078241#1"/>
    <trip id="303" depart="69.00" from="-311105589#2" to="300706776#2"/>
    <trip id="304" depart="69.00" from="6136574#5" to="-89953964#3"/>
    <trip id="305" depart="69.00" from="-1690#0" to="-23221862#0"/>
    <trip id="306" depart="69.00" from="-4084404#0" to="23242878#0"/>
    <trip id="307" depart="70.00" from="4237901#0" to="153260596#2"/>
    <trip id="308" depart="70.00" from="-15723788#1" to="16412829"/>
    <trip id="309" depart="70.00" from="10556417#0" to="3999269#0"/>
    <trip id="310" depart="70.00" from="-23242087#0" to="23247810#0"/>
    <trip id="311" depart="70.00" from="-23247810#0" to="-234755873"/>
    <trip id="312" depart="70.00" from="-223125117#1" to="-4005421#3"/>
    <trip id="313" depart="70.00" from="-4636153#1" to="-146415965#2"/>
    <trip id="314" depart="71.00" from="4061545#0" to="303174615#6"/>
    <trip id="315" depart="71.00" from="92384971" to="-151224667#1"/>
    <trip id="316" depart="71.00" from="1639688" to="4329574#2"/>
    <trip id="317" depart="71.00" from="2147860#1" to="-16414510#1"/>
    <trip id="318" depart="71.00" from="-4008600#0" to="4604600#0"/>
    <trip id="319" depart="71.00" from="123260689#5" to="89606992#0"/>
    <trip id="320" depart="71.00" from="154400949#2" to="23227615#2"/>
    <trip id="321" depart="71.00" from="-3578755#1" to="-145886304"/>
    <trip id="322" depart="72.00" from="227820009#0" to="-4604518"/>
    <trip id="323" depart="72.00" from="-1880955#2" to="3907167#4"/>
    <trip id="324" depart="72.00" from="-4546481#3" to="-300703986"/>
    <trip id="325" depart="72.00" from="4437501#0" to="-1931#0"/>
    <trip id="326" depart="72.00" from="-3297#1" to="4636409"/>
    <trip id="327" depart="73.00" from="-239908486#1" to="4875465#0"/>
    <trip id="328" depart="73.00" from="-153931260#2" to="146412982#1"/>
    <trip id="329" depart="73.00" from="-13484529#1" to="-4546375#1"/>
    <trip id="330" depart="73.00" from="-145583164#3" to="-154340674#5"/>
    <trip id="331" depart="73.00" from="-4043822#3" to="-28528167"/>
    <trip id="332" depart="73.00" from="46800054#6" to="177037845"/>
    <trip id="333" depart="74.00" from="-4074124#0" to="4253359#1"/>
    <trip id="334" depart="74.00" from="4084425#0" to="-23458240#1"/>
    <trip id="335" depart="74.00" from="4005410#2" to="8123256#0"/>
    <trip id="336" depart="75.00" from="4084411#5" to="177698503#0"/>
    <trip id="337" depart="75.00" from="-38499512#1" to="-1639364#16"/>
    <trip id="338" depart="75.00" from="15452222" to="4269321"/>
    <trip id="339" depart="75.00" from="-3294#1" to="-8137925"/>
    <trip id="340" depart="75.00" from="4536148" to="-140647298#1"/>
    <trip id="341" depart="75.00" from="361437526#1" to="4077031#11"/>
    <trip id="342" depart="75.00" from="-177364072#1" to="9652508#1"/>
    <trip id="343" depart="76.00" from="4437951#0" to="338658590#4"/>
    <trip id="344" depart="76.00" from="-100026278" to="-3677087#1"/>
    <trip id="345" depart="76.00" from="4539220#7" to="-15722353#1"/>
    <trip id="346" depart="76.00" from="80628899" to="99052524#2"/>
    <trip id="347" depart="76.00" from="227820009#0" to="4539977#2"/>
    <trip id="348" depart="77.00" from="-4687594#0" to="-696"/>
    <trip id="349" depart="77.00" from="4727629#1" to="4329697#0"/>
    <trip id="350" depart="77.00" from="-4541326#1" to="23242878#0"/>
    <trip id="351" depart="77.00" from="-16431955#1" to="3091879#27"/>
    <trip id="352" depart="77.00" from="154397896#1" to="369547519#0"/>
    <trip id="353" depart="78.00" from="8134039" to="232313657#7"/>
    <trip id="354" depart="78.00" from="4237901#1" to="4074117#0"/>
    <trip id="355" depart="78.00" from="4015806#0" to="-15452817#0"/>
    <trip id="356" depart="78.00" from="-124258711#0" to="-4604637"/>
    <trip id="357" depart="79.00" from="-4061545#1" to="-4589170#0"/>
    <trip id="358" depart="79.00" from="-4437554" to="-4687598"/>
    <trip id="359" depart="79.00" from="386012834#1" to="-292109482"/>
    <trip id="360" depart="79.00" from="4727659" to="-4546071"/>
    <trip id="361" depart="79.00" from="16610266#4" to="-145690675#5"/>
    <trip id="362" depart="79.00" from="464559656" to="3910152#0"/>
    <trip id="363" depart="80.00" from="152463287#2" to="4278989#0"/>
    <trip id="364" depart="80.00" from="303172695#1" to="303174610#2"/>
    <trip id="365" depart="80.00" from="15724196#0" to="-8123425#3"/>
    <trip id="366" depart="80.00" from="-4635651" to="4405514#1"/>
    <trip id="367" depart="80.00" from="300704015#1" to="8131448#0"/>
    <trip id="368" depart="80.00" from="4580481" to="1679#2"/>
    <trip id="369" depart="80.00" from="3189512" to="4698138#3"/>
    <trip id="370" depart="81.00" from="-145690669#14" to="4437554"/>
    <trip id="371" depart="81.00" from="33141012#0" to="23221763"/>
    <trip id="372" depart="81.00" from="-273269109#0" to="27134567#0"/>
    <trip id="373" depart="81.00" from="-24307056#4" to="4437586#1"/>
    <trip id="374" depart="81.00" from="394855412" to="96198552#3"/>
    <trip id="375" depart="81.00" from="4569963" to="4604601#0"/>
    <trip id="376" depart="82.00" from="-36808961" to="-177551339"/>
    <trip id="377" depart="82.00" from="205374511#2" to="-4077025#3"/>
    <trip id="378" depart="82.00" from="-154341130" to="-4706546#3"/>
    <trip id="379" depart="82.00" from="-145484564#0" to="-3431519#1"/>
    <trip id="380" depart="82.00" from="-4360457#1" to="1639458#0"/>
    <trip id="381" depart="82.00" from="-469802177#3" to="219718797"/>
    <trip id="382" depart="82.00" from="-4215227#0" to="145690669#15"/>
    <trip id="383" depart="83.00" from="-9675172" to="222565138#0"/>
    <trip id="384" depart="83.00" from="-153931261#1" to="4585183"/>
    <trip id="385" depart="83.00" from="429112847" to="-23230048#2"/>
    <trip id="386" depart="84.00" from="330364432#4" to="-219718797"/>
    <trip id="387" depart="84.00" from="4567245#4" to="303172179#1"/>
    <trip id="388" depart="84.00" from="2818442#5" to="-4329697#4"/>
    <trip id="389" depart="84.00" from="4008573#0" to="4585158"/>
    <trip id="390" depart="84.00" from="153931477#1" to="-23282302#2"/>
    <trip id="391" depart="85.00" from="4546173#1" to="-145583164#3"/>
    <trip id="392" depart="85.00" from="124258661#5" to="-3987527"/>
    <trip id="393" depart="85.00" from="207474455#1" to="154345652"/>
    <trip id="394" depart="85.00" from="-449451751" to="-4079292#2"/>
    <trip id="395" depart="85.00" from="243994308#0" to="383977072#5"/>
    <trip id="396" depart="85.00" from="4687172#0" to="4360447#0"/>
    <trip id="397" depart="85.00" from="-4437854#2" to="239265844#0"/>
    <trip id="398" depart="86.00" from="16431953" to="4546176#1"/>
    <trip id="399" depart="86.00" from="-124416957#2" to="-300714624#0"/>
    <trip id="400" depart="86.00" from="-15725501" to="5041381#1"/>
    <trip id="401" depart="86.00" from="4546483" to="-16610266#3"/>
    <trip id="402" depart="87.00" from="4546318#0" to="8124541"/>
    <trip id="403" depart="87.00" from="4342628#0" to="-42710382#0"/>
    <trip id="404" depart="87.00" from="154337543" to="-175762299#3"/>
    <trip id="405" depart="88.00" from="1260196#0" to="2651701"/>
    <trip id="406" depart="88.00" from="8126419#3" to="-4215232#0"/>
    <trip id="407" depart="88.00" from="180140704" to="311105584#0"/>
    <trip id="408" depart="88.00" from="188468746#0" to="-239265815#2"/>
    <trip id="409" depart="88.00" from="-177698503#3" to="4295837#2"/>
    <trip id="410" depart="88.00" from="-16431945#0" to="309190139#2"/>
    <trip id="411" depart="88.00" from="178069307" to="-2956545#0"/>
    <trip id="412" depart="89.00" from="-4549105#1" to="2249753#0"/>
    <trip id="413" depart="89.00" from="-4061534#1" to="-303172180#1"/>
    <trip id="414" depart="89.00" from="-3996900#4" to="15722528"/>
    <trip id="415" depart="90.00" from="4437586#1" to="4279035#1"/>
    <trip id="416" depart="90.00" from="-299668183#8" to="-16431961#2"/>
    <trip id="417" depart="90.00" from="-4549116#4" to="1639364#10"/>
    <trip id="418" depart="90.00" from="-24307056#8" to="4589167#3"/>
    <trip id="419" depart="90.00" from="-6122671#5" to="52082005#1"/>
    <trip id="420" depart="90.00" from="35083933#0" to="2501896#1"/>
    <trip id="421" depart="91.00" from="4437757#0" to="-23221917"/>
    <trip id="422" depart="91.00" from="-4589173#1" to="-3677088#2"/>
    <trip id="423" depart="91.00" from="4727638#1" to="206001840"/>
    <trip id="424" depart="91.00" from="4215246#5" to="1660#0"/>
    <trip id="425" depart="91.00" from="4254564#0" to="-3278#1"/>