<?xml version="1.0" encoding="UTF-8"?>
<!-- generated on 2018-07-25 19:04:32.467483 by $Id$
  options: -n newark_square.net.xml -t shapes.xml
-->
<tazs xmlns:xsi="http://www.w3.org/2001/XMLSchema-instance" xsi:noNamespaceSchemaLocation="http://sumo.dlr.de/xsd/taz_file.xsd">
    <taz id="poly_0" edges="-11613776 -11614385#0 -11614385#1 -11614390 -11614831 -11616293#0 -11616293#1 -11616343 -11616474 -11616496 -11616570#0 -11616570#1 -11616570#2 -11616725 -11616790 -11617012 -11617072#0 -11617072#1 -11617072#2 -11617099 -11617294#0 -11617294#1 -11617309 -11617336 -11617418#0 -11617418#1 -11617418#2 -11617418#3 -11617418#4 -11617418#5 -11617515 -11617566 -11617596 -11617668 -11617759#0 -11617759#1 -11617807#0 -11617807#1 -11617807#2 -11617851 -11617852 -11617879#0 -11617879#1 -11617879#2 -11617879#3 -11617879#5 -11617959 -11618003#0 -11618003#2 -11618003#3 -11618003#4 -11618006 -11618064 -11618066#0 -11618066#1 -11618066#2 -11618066#3 -11618330#0 -11618330#1 -11618428#1 -11618428#2 -11618428#3 -11618428#4 -11618455 -11618651#0 -11618651#1 -11618701#0 -11618701#1 -11618715 -11618746 -11618841 -11619050#0 -11619050#1 -11619130 -11619196#0 -11619196#1 -11619260 -11619460 -11619532#0 -11619532#2 -11619713#0 -11619713#1 -11619713#2 -11619713#3 -11619713#4 -11619713#5 -11619713#6 -11619713#7.246 -11619717 -11619852 -11619893 -11620067#3 -11620142#0 -11620142#1 -11620185 -11620187 -11620210 -11620316#0 -11620316#1 -11620316#2 -11620316#3 -11620316#4 -11620471#10 -11620471#11 -11620471#12 -11620471#13 -11620471#14 -11620471#8 -11620471#9 -11620523#0 -11620523#2 -11620524 -11620535#0 -11620535#1 -11620575#0 -11620575#1 -11620575#2 -11620575#3 -11620575#4 -11620575#5 -11620575#6 -11620680#0 -11620680#1 -11620680#2 -11620680#3 -11620680#4 -11620680#5 -11620726 -11620727 -11620837 -11620873#0 -11620937#0 -11620937#1 -11621006#0 -11621006#1 -11621006#2 -11621006#3 -11621006#4 -11621009 -11621095 -11621096 -11621289#0 -11621289#1 -11621289#2 -11621359 -11621372 -11621401#10 -11621401#11 -11621401#12 -11621401#13 -11621401#14 -11621401#15 -11621401#8 -11621401#9 -11621541#0 -11621541#1 -11621666#0 -11621666#1 -11621666#10 -11621666#11 -11621666#12 -11621666#13 -11621666#14 -11621666#15 -11621666#2 -11621666#3 -11621666#4 -11621666#5 -11621666#6 -11621666#7 -11621666#8 -11621666#9 -11621828#0 -11621828#1 -11621857 -11621863 -11621970 -11622014 -11622124 -11622242 -11622274#2 -11622274#3 -11622380#0 -11622380#1 -11622439#0 -11622439#1 -11622453#1 -11622453#10 -11622453#11 -11622453#12 -11622453#9 -11622456 -11622589 -11622666#0 -11622666#1 -11622666#2 -11622690#3 -11622690#4 -11622780 -11622892#0 -11622892#1 -11622892#2 -11622892#3 -11622955 -11623023 -11623029 -11623075#0 -11623075#1 -11623075#10 -11623075#11 -11623075#12 -11623075#13 -11623075#14 -11623075#15 -11623075#16 -11623075#17 -11623075#18 -11623075#19 -11623075#2 -11623075#20 -11623075#3 -11623075#4 -11623075#5 -11623075#6 -11623075#7 -11623075#8 -11623075#9 -11623161 -11623294 -11623296#0 -11623296#1 -11623296#2 -11623296#3 -11623300 -11623486#0 -11623486#1 -11623625 -11623680#0 -11623680#1 -11624029 -11624119 -11624179#0 -11624179#1 -11624179#2 -11624328 -11624369#0 -11624369#1 -11624369#2 -11624579#0 -11624579#1 -11624579#2 -11624579#3 -11624594#0 -11624594#1 -11624812 -11624858#0 -11624858#1 -11624858#2.496 -11625095#10 -11625095#11 -11625095#12 -11625095#13 -11625095#14 -11625095#15 -11625095#6 -11625095#7 -11625095#8 -11625095#9 -222857202#1 -222857295#1 -222857295#2 -222857295#3 -222857295#4 -222857295#5 -224940630#5 -224940633 -224940635#0 -224940635#1 -224940635#2 -224940635#3 -224940635#4 -224940712#0 -224940712#1 -224940712#2 -224940712#3 -224940712#4 -224940713 -224940715 -256664450 -262807631#0 -262807631#1 -262807631#2 -262807631#3 -262807631#4 -262807631#5 -262807631#6 -262807631#7 -268206221#0 -268206221#1 -268206221#2 -268206221#3 -268206221#4 -268206221#5 -268206223#1 -268206223#2 -268206235#0 -268206235#1 -268206235#2 -268206235#3 -268206235#4 -268206235#5 -268206235#6 -268206248#2 -268206254#0 -268206254#1 -268206254#2 -268206254#3 -268206254#4 -268206254#5 -268206255 -268206256#0 -268206256#1 -268206256#2 -268206256#3 -268206284 -268206317#0 -268206317#1 -268206317#2 -268206317#3 -268206317#4 -268206317#5 -268206317#6 -268206317#7 -268206317#8 -268206317#9 -268206318#0 -268206331#0 -268206331#1 -268206331#2 -268206344#0 -268206344#1 -27239078#0 -27239078#2 -27239078#3 -27239078#4 -27239078#5 -27239078#6 -27827471#0 -27827471#1 -27827471#2 -27827471#3 -27827471#5 -27827473#1 -27827473#2 -27827473#3 -27827473#4 -27827473#5 -27827473#6 -27827473#7 -27827473#8 -28274780#10 -28274780#11 -28274780#12 -28274780#2 -28274780#3 -28274780#4 -28274780#5 -28274780#6 -28274780#7 -28274780#8 -28274780#9 -351451186 -38312420#0 -38312420#1 -38312440#0 -38312440#1 -38312440#2 -38312440#3 -38312440#4 -38312440#5 -38312440#6 -396219949 -424975233#0 -424975233#1 -424975233#2 -424975233#3 -424975233#4 -424975233#5 -424975233#6 -424975233#7 -424975233#8 -425195349#2 -425195349#3 -425195349#4 -425195349#5 -425195349#6 -425243270 -425431901#10 -425431901#11 -425431901#12 -425431901#13 -425431901#14 -425431901#15 -425431901#3 -425431901#4 -425431901#5 -425431901#6 -425431901#7 -425431901#8 -425431901#9 -425431904 -425433922#0 -425433922#1 -425433922#2 -425433922#3 -425433923#0 -425433923#1 -425433923#2 -425433923#3 -425433923#4 -425433923#5 -425433923#6 -425433923#7 -425433923#8 -425433923#9 -425434491#0 -425434491#1 -425434491#10 -425434491#2 -425434491#3 -425434491#4 -425434491#5 -425434491#6 -425434491#7 -425434491#8 -425434491#9 -425440458 -425442680#12 -425442680#13 -425442680#14 -425442680#15 -425442680#16 -425442680#17 -425442680#18 -425442682#0 -425442682#1 -425442682#2 -425442682#3 -425442682#4 -425442682#5 -425442682#6 -425442682#7 -425442682#8 -425442683 -425442685#0 -425442685#1 -426412565#0 -426412565#1 -426412565#2 -426412565#3 -426412565#4 -576298425 -576298426 -576298430 -576623832 -576623861 -576623896 -576623906 -579737304 -579954407 -579984660 -581988735#0 -581988735#1 -581988735#2 -60254496 11613776 11614385#0 11614385#1 11614390 11614831 11616293#0 11616293#1 11616343 11616474 11616496 11616544#0 11616544#1 11616570#0 11616570#1 11616570#2 11616725 11616734 11616790 11616904#0 11616904#1 11617012 11617043 11617072#0 11617072#1 11617072#2 11617099 11617249 11617252#1 11617252#10 11617252#2 11617252#3 11617252#4 11617252#5 11617252#6 11617252#7 11617252#8 11617252#9 11617287#0 11617287#1 11617287#2 11617294#0 11617294#1 11617309 11617336 11617409#0 11617409#1 11617409#2 11617409#3 11617416#0 11617416#1 11617416#2 11617416#3 11617416#4 11617416#5 11617416#6 11617418#0 11617418#1 11617418#2 11617418#3 11617418#4 11617418#5 11617425 11617515 11617542 11617566 11617596 11617668 11617746 11617759#0 11617759#1 11617807#0 11617807#1 11617807#2 11617851 11617852 11617856#0 11617856#1 11617879#0 11617879#1 11617879#2 11617879#3 11617879#4 11617943#0 11617943#1 11617943#2 11617959 11618003#0 11618003#1 11618003#3 11618003#4 11618006 11618064 11618066#0 11618066#1 11618066#2 11618066#3 11618168#7 11618202#1 11618230#0 11618230#1 11618330#0 11618330#1 11618422 11618428#0 11618428#1 11618428#2 11618428#3 11618428#4 11618455 11618580 11618651#0 11618651#1 11618701#0 11618701#1 11618715 11618746 11618788#0 11618788#1 11618788#2 11618819#0 11618819#1 11618819#2 11618819#3 11618819#4 11618819#5 11618840 11618841 11618854#0 11618854#1 11618854#2 11618854#3 11618854#4 11619050#0 11619050#1 11619130 11619132#0 11619132#1 11619138#0 11619138#1 11619191 11619196#0 11619196#1 11619260 11619405#0 11619405#1 11619405#2 11619460 11619532#1 11619713#1 11619713#2 11619713#3 11619713#4 11619713#5 11619713#6 11619713#7 11619716#0 11619716#1 11619716#2 11619717 11619852 11619893 11619903#0 11619903#1 11620000#0 11620000#1 11620000#2 11620000#3 11620000#4 11620000#5 11620013#0 11620013#1 11620067#3 11620142#0 11620142#1 11620185 11620187 11620210 11620211 11620316#0 11620316#1 11620316#2 11620316#3 11620316#4 11620440#0 11620440#1 11620441 11620471#10 11620471#11 11620471#12 11620471#13 11620471#14 11620471#8 11620471#9 11620479 11620522#0 11620522#1 11620523#0 11620523#1 11620535#0 11620535#1 11620575#0 11620575#1 11620575#2 11620575#3 11620575#4 11620575#5 11620575#6 11620680#0 11620680#1 11620680#2 11620680#3 11620680#4 11620680#5 11620684 11620726 11620727 11620837 11620873#0 11620873#1 11620875#0 11620875#1 11620937#0 11620937#1 11621006#0 11621006#1 11621006#2 11621006#3 11621006#4 11621022#0 11621022#1 11621022#2 11621022#3 11621095 11621096 11621288 11621289#0 11621289#1 11621289#2 11621359 11621372 11621401#10 11621401#11 11621401#12 11621401#13 11621401#14 11621401#15 11621401#8 11621401#9 11621480#0 11621480#1 11621480#2 11621480#3 11621506 11621541#0 11621541#1 11621666#1 11621666#10 11621666#11 11621666#12 11621666#13 11621666#14 11621666#15 11621666#2 11621666#3 11621666#4 11621666#5 11621666#6 11621666#7 11621666#8 11621666#9 11621777 11621828#1 11621828#2 11621857 11621863 11621970 11621984#0 11621984#1 11621984#2 11622014 11622076 11622092#0 11622092#1 11622092#2 11622092#3 11622124 11622242 11622274#2 11622274#3 11622378#0 11622378#1 11622380#0 11622380#1 11622389#1 11622389#2 11622439#0 11622439#1 11622453#0 11622453#10 11622453#11 11622453#12 11622453#2 11622456 11622589 11622591#0 11622591#1 11622593#0 11622593#1 11622593#2 11622593#3 11622666#1 11622666#2 11622690#3 11622690#4 11622780 11622789 11622892#0 11622892#1 11622892#2 11622892#3 11622955 11622981 11623023 11623029 11623075#0 11623075#1 11623075#10 11623075#11 11623075#12 11623075#13 11623075#14 11623075#15 11623075#16 11623075#17 11623075#18 11623075#19 11623075#2 11623075#20 11623075#3 11623075#4 11623075#5 11623075#6 11623075#7 11623075#8 11623075#9 11623161 11623276 11623294 11623296#0 11623296#1 11623296#2 11623296#3 11623300 11623478 11623486#0 11623486#1 11623625 11623680#0 11623680#1 11623830#0 11623830#1 11624029 11624066 11624119 11624179#0 11624179#1 11624179#2 11624234 11624328 11624339 11624369#0 11624369#1 11624369#2 11624437 11624579#0 11624579#1 11624579#2 11624579#3 11624594#0 11624594#1 11624594#2 11624667#0 11624667#1 11624667#2 11624667#3 11624667#4 11624812 11624813#0 11624813#1 11624813#2 11624858#0 11624858#1 11624858#2 11625012#2 11625012#3 11625012#4 11625012#5 11625059#0 11625059#1 11625095#10 11625095#11 11625095#12 11625095#13 11625095#14 11625095#15 11625095#6 11625095#7 11625095#8 11625095#9 222857202#1 222857295#1 222857295#2 222857295#3 222857295#4 222857295#5 224940630#5 224940635#0 224940635#1 224940635#2 224940635#3 224940635#4 224940712#0 224940712#1 224940712#2 224940712#3 224940712#4 224940713 224940715 256664450 262807631#0 262807631#1 262807631#2 262807631#3 262807631#4 262807631#5 262807631#6 262807631#7 268206221#0 268206221#1 268206221#2 268206221#3 268206221#4 268206221#5 268206223#1 268206223#2 268206235#0 268206235#1 268206235#2 268206235#3 268206235#4 268206235#5 268206235#6 268206235#7 268206248#2 268206254#0 268206254#1 268206254#2 268206254#3 268206254#4 268206254#5 268206255 268206256#0 268206256#1 268206256#2 268206256#3 268206284 268206317#0 268206317#1 268206317#2 268206317#3 268206317#4 268206317#5 268206317#6 268206317#7 268206317#8 268206317#9 268206318#0 268206318#1 268206331#0 268206331#1 268206331#2 268206344#0 268206344#1 27239078#0 27239078#1 27239078#3 27239078#4 27239078#5 27239078#6 27398149 27398150 27398151 27398166 277168817 27827471#0 27827471#1 27827471#2 27827471#3 27827471#4 27827473#1 27827473#2 27827473#3 27827473#4 27827473#5 27827473#6 27827473#7 27827473#8 27827473#9 28274780#10 28274780#11 28274780#12 28274780#2 28274780#3 28274780#4 28274780#5 28274780#6 28274780#7 28274780#8 28274780#9 32334434#0.2011 351451186 38312390 38312406 38312420#1 38312432#1 38312440#1 38312440#2 38312440#3 38312440#4 38312440#5 38312440#6 38312480 396219949 396219950#0 396219950#1 424472513 424975233#0 424975233#1 424975233#2 424975233#3 424975233#4 424975233#5 424975233#6 424975233#7 424975233#8 425195349#2 425195349#3 425195349#4 425195349#5 425195349#6 425431900#0 425431900#1 425431900#2 425431901#10 425431901#11 425431901#12 425431901#13 425431901#14 425431901#15 425431901#3 425431901#4 425431901#5 425431901#6 425431901#7 425431901#8 425431901#9 425431904 425432311#0 425432311#1 425432311#2 425432311#3 425432311#4 425432958#0 425432958#1 425432958#2 425432958#3 425432958#4 425432958#5 425432958#6 425432958#7 425432958#8 425433921#0 425433921#1 425433921#2 425433922#0 425433922#1 425433922#2 425433922#3 425433923#0 425433923#1 425433923#2 425433923#3 425433923#4 425433923#5 425433923#6 425433923#7 425433923#8 425433923#9 425434491#0 425434491#1 425434491#10 425434491#2 425434491#3 425434491#4 425434491#5 425434491#6 425434491#7 425434491#8 425434491#9 425440458 425442680#11 425442680#13 425442680#14 425442680#15 425442680#16 425442680#17 425442680#18 425442680#19 425442681 425442682#0 425442682#1 425442682#2 425442682#3 425442682#4 425442682#5 425442682#6 425442682#7 425442682#8 425442683 425442685#0 425442685#1 426412565#0 426412565#1 426412565#2 426412565#3 426412565#4 54671929#1 576298425 576298426 576298427 576298428 576349119 576349120#0 576349120#1 576354106 576357608 576623832 576623843#0 576623843#1 576623843#2 576623843#3 576623849 576623861 576623873#1 576623873#2 576623873#3 576623873#4 576623884 576623896 576623906 579954407 579954408 579984659 579984660 579984661 581988735#0 581988735#1 581988735#2 582734773 582734775 582734777#0 582734777#1 60254496 60254510"/>
    <taz id="poly_1" edges="-11613734#0 -11613734#1 -11613734#2 -11613734#3 -11613734#4 -11613734#5 -11613734#7 -11613795#0 -11613795#1 -11613795#2 -11615252#0 -11615252#1 -11615268 -11615292#0 -11615292#1 -11615292#2 -11616431 -11616432 -11616476#0 -11616476#1 -11616476#3 -11616503 -11616506#0 -11616506#1 -11616506#10 -11616506#11 -11616506#13 -11616506#2 -11616506#3 -11616506#4 -11616506#5 -11616506#6 -11616506#7 -11616506#8 -11616506#9 -11616674#2 -11616674#3 -11616804#0 -11616804#1 -11616804#2 -11616804#3.255 -11616933 -11616982 -11616986#0 -11616986#1 -11616986#2 -11616986#3 -11616986#5 -11617447 -11617648#1 -11617905#1 -11617949#0 -11617949#1 -11617949#2 -11618063#0 -11618063#1 -11618063#2 -11618194 -11618252 -11618257#0 -11618257#1 -11618275 -11618398 -11618680 -11618827#1 -11619007 -11619023#0 -11619023#1 -11619200#0 -11619200#2 -11619200#3 -11619280#0 -11619280#1 -11619280#2 -11619280#3 -11619280#4 -11619280#5 -11619280#6 -11619280#7 -11619280#8 -11619314#0 -11619314#1 -11619314#2 -11619314#3 -11619314#4 -11619314#6 -11619314#8 -11619314#9 -11619381.628 -11619441 -11619496#0 -11619496#1 -11619496#2 -11619496#3 -11619496#4 -11619496#5 -11619496#6 -11619499 -11619519 -11619551#0 -11619551#2 -11619551#3 -11619551#4 -11619616 -11619725#0 -11619725#1 -11619726 -11619775#0 -11619775#3 -11620047#2 -11620050#0 -11620050#1 -11620050#2 -11620050#3 -11620056#0 -11620056#1 -11620056#2 -11620056#3 -11620056#4 -11620058 -11620080 -11620088#11 -11620088#2 -11620088#3 -11620088#4 -11620088#5 -11620088#7 -11620088#9 -11620217#0 -11620217#1 -11620492#0 -11620492#1 -11620496 -11620506 -11620525#0 -11620525#1 -11620525#2 -11620527 -11620542#0 -11620542#1 -11620599 -11620722#0 -11620722#1 -11620722#2 -11620781#0 -11620850#0 -11620850#1 -11620850#2 -11620850#3 -11620850#4 -11620852#0 -11620852#1 -11620852#10 -11620852#11 -11620852#2 -11620852#3 -11620852#4 -11620852#5 -11620852#6 -11620852#7 -11620852#8 -11620852#9 -11620999#0 -11621047#3 -11621226#0 -11621381#0 -11621381#1 -11621478#0 -11621548 -11621549 -11621566#0 -11621566#1 -11621566#3 -11621618#0 -11621618#1 -11621618#2 -11621824 -11622022#1 -11622022#2 -11622137#0 -11622137#1 -11622306 -11622307#0 -11622326#0 -11622326#1 -11622414#0 -11622414#1 -11622414#2 -11622414#3 -11622414#4 -11622414#5 -11622414#6 -11622414#7 -11622512#0 -11622515#0 -11622515#1 -11622515#2 -11622966 -11623003 -11623011 -11623014#0 -11623014#1 -11623052#0 -11623052#1 -11623182 -11623234 -11623371#0 -11623371#1 -11623371#2 -11623489 -11623494 -11623571#0 -11623571#1 -11623571#2 -11623571#3 -11623591#0 -11623591#1 -11623591#2 -11623595#0 -11623595#1 -11623595#2 -11623595#3 -11623595#4 -11623595#5 -11623644#0 -11623644#1 -11623644#3 -11623644#4 -11623644#5 -11623644#6 -11623676#0 -11623676#1 -11623676#3 -11623676#4 -11623676#5 -11623676#6 -11623731#0 -11623731#1 -11623731#2 -11623732 -11623782 -11624229#1 -11624229#2 -11624229#3 -11624390#0 -11624390#1 -11624727 -11624780#1 -11624781 -11624809 -11624831#0 -11624831#1 -11624831#3 -11625060 -116565927 -116565947 -132500826#0 -132500826#3 -132500827#0 -132500827#1 -132500827#2 -132500827#3 -132500828 -132500829#2 -132500829#3 -132500833#1 -132500834#0 -132500834#1 -132500849#0 -132500849#1 -132500850#2 -132500850#5 -132500885#1 -132500890#0 -132500890#1 -132500890#2 -132500917#3 -132500917#5 -132500917#8 -132500917#9 -183178827#0 -195846419#0 -195846419#1 -195846422#0 -195846422#1 -198251048 -198251052#0 -198251052#2 -198251063 -198251728#1 -224940610 -224940615 -224940617#0 -224940617#1 -224940624#0 -224940624#1 -224940642#0 -224940642#1 -224940642#2 -224940643#0 -224940643#1 -224940643#2 -224940643#3 -224940643#4 -224940643#5 -224940670#0 -224940670#1 -224940677 -224940678#0 -224940678#1 -224940678#2 -224940697#0 -224940697#1 -224940733#1 -224940733#3 -230388293#0 -230388293#1 -230388293#2 -230388293#3 -230388293#4 -230388293#5 -256942024#2 -256942024#3 -256942026 -256942032#1 -259492786 -261713314 -261713315 -261713321#0 -261713321#1 -261713322 -261713323#1 -261713324#0 -261713324#2 -261713325 -261713327#0 -261713328#0 -261713328#1 -261713328#2 -261713329#0 -261713329#1 -261713329#2 -262807534#0 -262807534#1 -262807534#2 -262807534#3 -262807534#4 -262807534#5 -262807542#1 -262807543#0 -262807543#2 -262807573 -262807574#0 -262807574#1 -262807591#4 -262807591#5 -262807611#0 -262807611#1 -262807611#2 -262807611#3 -262807614#0 -262807614#1 -262807635 -262807636#0 -262807636#1 -262807636#2 -262807636#3 -268206222 -268206245#0 -268206245#1 -268206245#2 -268206246#0 -268206246#2 -268206246#3 -268206246#4 -268206291#0 -268206291#1 -268206291#2 -268206291#4 -26968332 -26968334#0 -26968334#1 -27274012 -27829574 -28885894#0 -28885894#1 -28929125#0 -28929125#1 -28929125#2 -28929125#3 -28929125#4 -28929125#5 -28929125#6 -28929125#7 -28929125#8 -28929125#9 -28929134#1 -28929134#2 -295017255 -310456446 -338794354#0 -346657923 -346923271 -346923272#2 -346923274 -346923275#1 -346923278 -359399607 -415459430#0 -415459430#1 -415459431 -416681463 -420627480 -420818147 -420818149 -420818157 -420818166 -420818170 -420818173 -420818174 -420818176 -420818180 -420818181 -420818182 -420818183 -420818185#0 -420818185#1 -420818186 -420818191#0 -420818191#1 -420818199#0 -420818199#1 -420818203#0 -420818203#1 -420818205 -420818206 -420818208 -420818812 -420818813 -420818814 -420818829 -420818830 -420892235#0 -420892235#1 -420892235#2 -420892235#3 -420894383#0 -420895388#0 -420895388#2 -420895388#3 -420895388#4 -420895388#5 -420895388#6 -420895734#0 -420895734#5 -420895734#8 -420895734#9 -420895735#0 -420895735#1 -420895735#2 -421305945#0 -421305945#1 -421305945#2 -421305945#3 -421305945#4 -421351654#0 -422529567#7 -422750100#0 -422750100#1 -422750100#2 -422750100#3 -422750100#4 -422750100#5 -422751054#0 -422751054#1 -422751054#2 -422751054#3 -422751054#4 -422751054#5 -422751054#6.838 -422867553#0 -422867553#1 -422868066#0 -422868066#1 -422868066#2 -422868066#3 -422868066#4 -422868066#5 -422868066#6 -422868066#7 -422868066#8 -422871050 -422873497#0 -422873497#1 -422873497#11 -422873497#12 -422873497#2 -422873497#3 -422873497#7 -422873497#8 -422873497#9 -422874559 -423204798#0 -423204799#0 -423204799#1 -423204799#2 -423204799#3.1029 -46962415 -46965481#0 -46965481#1 -46965481#2 -46965481#3.901 -46965507#1 -46965507#4 -46965507#6 -46965507#7 -46965508#1 -46965508#4 -46965570 -46965799#0 -46965799#1 -46965799#10 -46965799#2 -46965799#3 -46965799#4 -46965799#5 -46965799#6 -46965799#7 -46965799#8 -46965799#9 -46965801 -49200096#0 -49200096#1 -49200096#2 -49200096#3 -49200097#0 -49200097#1 -49200097#2 -49200097#3 -49200101#0 -49200101#1 -49200101#2 -511747897 -511747899#0 -511747899#1 -511754951 -511754952 -511754955 -52636689#0 -52636689#1 -52636690 -572297853 -572299439 -572299441#1 -572299441#2 -579535225 -579535227 -579670588 -579737202#0 -579737202#1 -579755547 -579954410 -579984654 -579984785 -581079495 -582118680 -582734772#0 -582734772#1 -60785882#0 -60785882#1 -60785882#2 -60785882#3 -60785882#4 -60785882#5 -60785882#6 -60785883#0 -60785883#1 -60785883#2 -60785883#3 -60785883#4 -60785883#5 -60785883#6 -60785884 -60787510 -60787511#0 -60787511#1 -60787511#2 -60787513#1 -60787513#2 -60787515#0 -60787515#1 -60787516#0 -60787516#1 -60787516#2 -60787516#3 -60787518#0 -60787518#1 -60787520 -60787523 -60787525 -60787532#0 -60787532#1 -60787532#2 -60787532#3 -60787532#4 -60787532#5 -60787533 -60787539#1 -60787548#0 -60787548#1 -60787548#2 -60787548#3 -60787549#0 -60787549#1 -60787550#0 -60787550#1 -60787553#0 -60787553#1 -60787553#2 -60787554#2 -60787554#3 -60787554#4 -60787555 -60787556 -60787558#1 -60787558#2 -60787558#3 -60787558#4 -60787558#5 -60787559#0 -60787559#1 -60787559#2 -60787566#0 -60787566#1 -60787569 -60787570#0 -60787570#1 -60787571 -60787958 -60787959#0 -60787959#1 -60787960 -60787962#0 -60787962#1 -60787962#2 -60787963#1 -60787963#2 -60787963#3 -60787965#0 -60787965#1 -60787965#2 -60787966 -60787970#0 -60787970#2 -60787972#0 -60787972#1 -60787972#2 -60787972#3 -60787972#4 -75696583#0 -75696583#1 -75696583#2 114974826#0 114974826#2 114977472#0 114977473#0 11613734#0 11613734#1 11613734#2 11613734#3 11613734#4 11613734#5 11613734#6 11613744#0 11613744#1 11613795#0 11613795#1 11613795#2 11614004#0 11614004#1 11614340 11614421#0 11614421#1 11614421#2 11614421#3 11614421#4 11614584 11615252#0 11615252#1 11615268 11615292#0 11615292#1 11615292#2 11615543 11615620 11615996 11616300 11616431 11616432 11616476#0 11616476#1 11616476#2 11616491#0 11616491#1 11616491#2 11616491#3 11616491#4 11616503 11616506#0 11616506#1 11616506#10 11616506#11 11616506#12 11616506#2 11616506#3 11616506#4 11616506#5 11616506#6 11616506#7 11616506#8 11616506#9 11616607#1 11616607#3 11616607#4 11616674#0 11616674#3 11616756 11616777 11616787#1 11616804#0 11616804#1 11616804#2 11616804#3 11616880 11616933 11616982 11616986#0 11616986#1 11616986#2 11616986#3 11616986#4 11616994 11617447 11617557#1 11617557#2 11617648#0 11617649 11617905#0 11617949#0 11617949#1 11617949#2 11618063#0 11618063#1 11618063#2 11618099#0 11618099#1 11618099#2 11618099#3 11618099#4 11618099#5 11618099#6 11618099#7 11618099#8 11618192 11618195#0 11618195#1 11618195#2 11618248#0 11618248#1 11618248#2 11618252 11618257#0 11618257#1 11618275 11618398 11618680 11618714.145 11618756#0 11618756#1 11618756#2 11618800#0 11618800#1 11618800#10 11618800#11 11618800#12 11618800#13 11618800#14 11618800#15 11618800#2 11618800#3 11618800#4 11618800#5 11618800#6 11618800#7 11618800#8 11618800#9 11618801 11618827#1 11618885#0 11618885#2 11619007 11619023#0 11619023#1 11619062#0 11619062#1 11619062#2 11619062#3 11619062#4 11619099#0 11619099#1 11619162 11619200#0 11619200#1 11619200#3 11619280#0 11619280#1 11619280#2 11619280#3 11619280#4 11619280#5 11619280#6 11619280#7 11619280#8 11619314#0 11619314#1 11619314#2 11619314#3 11619314#4 11619314#5 11619314#7 11619314#9 11619317#0 11619317#4 11619367#0 11619367#1 11619367#2 11619367#3 11619367#4 11619367#5 11619367#6 11619381 11619441 11619457#0 11619457#1 11619457#2 11619457#3 11619496#0 11619496#1 11619496#2 11619496#3 11619496#4 11619496#5 11619496#6 11619499 11619519 11619546 11619551#1 11619551#3 11619551#4 11619616 11619725#0 11619725#1 11619726 11619744#0 11619744#1 11619744#2 11619744#3 11619744#4 11619775#0 11619775#1 11619851 11620045#0 11620045#1 11620047#0 11620050#0 11620050#1 11620050#2 11620050#3 11620056#0 11620056#1 11620056#2 11620056#3 11620056#4 11620058 11620080 11620088#10 11620088#12 11620088#2 11620088#3 11620088#4 11620088#5 11620088#6 11620088#8 11620213#0 11620213#1 11620213#2 11620213#3 11620213#4 11620213#5 11620217#0 11620217#1 11620385#0 11620385#1 11620385#2 11620385#3 11620385#4 11620462 11620492#1 11620496 11620506 11620525#0 11620525#1 11620525#2 11620527 11620542#0 11620542#1 11620569#0 11620569#1 11620599 11620660#0 11620660#1 11620660#2 11620660#3 11620660#4 11620660#5 11620722#0 11620722#1 11620722#2 11620723#1 11620723#2 11620723#3 11620723#4 11620781#0 11620781#1 11620850#1 11620850#2 11620850#3 11620850#4 11620852#0 11620852#1 11620852#10 11620852#11 11620852#2 11620852#3 11620852#4 11620852#5 11620852#6 11620852#7 11620852#8 11620852#9 11620872 11620921#0 11620921#1 11620921#2 11620943#0 11620943#1 11620943#2 11620943#3 11620999#0 11621013#0 11621013#1 11621013#2 11621047#0 11621226#0 11621226#1 11621245 11621273 11621381#0 11621381#1 11621398#0 11621398#1 11621457#0 11621457#1 11621457#2 11621457#3 11621472 11621478#0 11621478#1 11621523#0 11621523#1 11621538 11621542 11621548 11621549 11621566#0 11621566#1 11621566#2 11621614#0 11621614#1 11621614#2 11621614#3 11621614#4 11621614#5 11621614#6 11621614#7 11621618#0 11621618#1 11621618#2 11621824 11621899#0 11621899#1 11622022#0 11622022#2 11622137#0 11622137#1 11622261 11622306 11622307#0 11622326#0 11622326#1 11622408#0 11622408#1 11622414#0 11622414#1 11622414#2 11622414#3 11622414#4 11622414#5 11622414#6 11622414#7 11622440#0 11622440#1 11622462#0 11622462#1 11622512#0 11622512#1 11622515#1 11622515#2 11622799 11622800#0 11622800#1 11622800#2 11622842#0 11622842#1 11622842#2 11622920 11622966 11623003 11623011 11623014#0 11623014#1 11623014#2 11623052#0 11623052#1 11623182 11623224 11623234 11623242 11623243#0 11623243#1 11623243#2 11623243#3 11623371#0 11623371#1 11623371#2 11623461 11623489 11623494 11623549 11623571#0 11623571#1 11623571#2 11623571#3 11623591#0 11623591#1 11623591#2 11623595#0 11623595#1 11623595#2 11623595#3 11623595#4 11623595#5 11623595#6 11623644#0 11623644#1 11623644#2 11623644#4 11623644#5 11623644#6 11623676#1 11623676#2 11623676#4 11623676#5 11623676#6 11623702#0 11623702#1 11623702#2 11623702#3 11623702#4 11623731#0 11623731#1 11623731#2 11623731#3 11623732 11623772 11623782 11623784 11623787#0 11623787#1 11623787#2 11623825#0 11623866 11623880#0 11624104#0 11624104#1 11624147#0 11624147#1 11624147#2 11624147#3 11624147#4 11624229#0 11624229#2 11624229#3 11624344 11624388#0 11624388#1 11624388#2 11624390#0 11624390#1 11624526#0 11624526#1 11624526#2 11624526#3 11624526#4 11624526#5 11624552#0 11624552#1 11624552#2 11624625#0 11624625#1 11624643 11624727 11624780#0 11624781 11624809 11624831#0 11624831#1 11624831#2 11624925 11624929 11624983#1 11624983#2 11625060 11625091#0 11625091#1 11625091#2 11625091#3 11625091#4 11625091#5 11625101 116565927 116565947 132500826#0 132500826#1 132500827#0 132500827#1 132500827#2 132500827#3 132500828 132500829#0 132500829#3 132500833#0 132500834#0 132500834#1 132500849#0 132500849#1 132500850#0 132500850#3 132500851#0 132500885#0 132500890#0 132500890#1 132500890#2 132500891 132500917#0 132500917#4 132500917#6 132500917#9 132500918 132500929 132500930 132500931#0 182115512 183178827#1 183178835 183178839 183178850 183178852#1 190455740 195846419#1 195846422#1 198251052#1 198251054#0 198251059 198251060#0 198251063 214378560 224940610 224940615 224940617#1 224940624#0 224940624#1 224940642#0 224940642#1 224940642#2 224940643#0 224940643#1 224940643#2 224940643#3 224940643#4 224940643#5 224940657 224940664 224940665#0 224940665#1 224940670#0 224940670#1 224940678#0 224940678#1 224940678#2 224940697#0 224940697#1 224940728#0 224940728#1 224940728#2 224940728#3 224940728#4 224940728#5 224940733#0 224940733#2 230388293#0 230388293#1 230388293#2 230388293#3 230388293#4 230388293#5 230388294 230388295 230388297 230389173 230389179#0 230389179#1 230389179#2 230389179#3 230389179#4 230389181 230389183 230389950 256942024#0 256942024#3 256942024#4 256942032#0 259603888 259617404 261713314 261713315 261713316 261713318 261713321#0 261713321#1 261713322 261713323#1 261713324#0 261713324#1 261713325 261713327#0 261713327#1 261713328#0 261713328#1 261713328#2 261713329#0 261713329#1 261713329#2 262807534#0 262807534#1 262807534#2 262807534#3 262807534#4 262807534#5 262807535#0 262807535#2 262807542#0 262807543#1 262807551#0 262807551#1 262807556#0 262807556#1 262807556#2 262807556#3 262807556#4 262807573 262807574#0 262807574#1 262807591#0 262807591#5 262807593#0 262807593#1 262807593#2 262807593#3 262807593#4 262807593#5 262807593#6 262807611#0 262807611#1 262807611#2 262807611#3 262807614#0 262807614#1 262807617#0 262807617#1 262807635.145 262807636#0 262807636#1 262807636#2 262807636#3 262807660#0 262807660#3 262807661#0 262807661#1 262807661#2 262807661#3 26561356#0 26561356#1 26561356#2 268206222 268206245#0 268206245#1 268206245#2 268206246#0 268206246#1 268206246#3 268206246#4 268206291#0 268206291#1 268206291#2 268206291#3 268206349#0 268206349#1 268206349#3 26968332 26968334#0 26968334#1 26968334#2 27263695 27263699 27263701 27263703 27263730 27263986 27274012 27278795 27279646#0 27279646#1 27279648 274863882#2 275864254 277135316 27829574 28885894#1 28929125#0 28929125#1 28929125#2 28929125#3 28929125#4 28929125#5 28929125#6 28929125#7 28929125#8 28929125#9 28929134#0 28929134#2 28929203 295017255 310456446 325560896 338794363 346657923 346923271 346923272#0 346923274 346923276 346923278 359399607 361439212 386947060#0 386947060#1 387150007 396415921#0 415459430#0 415459430#1 415459431 416681463 420627480 420627481 420815259 420815287 420815288 420815824#0 420818149 420818153 420818161 420818164 420818170 420818173 420818174 420818176 420818180 420818181 420818182 420818183 420818184 420818185#0 420818185#1 420818186 420818191#0 420818191#1 420818199#0 420818199#1 420818203#0 420818203#1 420818207 420818210 420818812 420818813 420818814 420818829 420818830 420892235#0 420892235#1 420892235#2 420892235#3 420894383#0 420895388#0 420895388#1 420895388#3 420895388#4 420895388#5 420895388#6 420895734#0 420895734#1 42