<?xml version="1.0" encoding="UTF-8"?>
<!-- generated on 2018-07-25 18:02:48.619836 by $Id$
  options: -n newark_square.net.xml -t new_shapes.xml
-->
<tazs xmlns:xsi="http://www.w3.org/2001/XMLSchema-instance" xsi:noNamespaceSchemaLocation="http://sumo.dlr.de/xsd/taz_file.xsd">
    <taz id="poly_0" edges="-11613776 -11614328 -11614329 -11614385#0 -11614385#1 -11614390 -11614831 -11614966 -11614975#0 -11614975#1 -11614975#2 -11614975#3 -11614975#4 -11614975#5 -11616293#0 -11616293#1 -11616343 -11616474 -11616496 -11616518 -11616519#0 -11616519#1 -11616519#2 -11616519#3 -11616519#4 -11616519#5 -11616520 -11616521 -11616570#0 -11616570#1 -11616570#2 -11616725 -11616790 -11616817#2 -11616817#3 -11616817#4 -11617012 -11617072#0 -11617072#1 -11617072#2 -11617099 -11617148#5 -11617159 -11617294#0 -11617294#1 -11617309 -11617336 -11617413#0 -11617418#0 -11617418#1 -11617418#2 -11617418#3 -11617418#4 -11617418#5 -11617515 -11617546#0 -11617546#1 -11617566 -11617596 -11617668 -11617759#0 -11617759#1 -11617807#0 -11617807#1 -11617807#2 -11617851 -11617852 -11617879#0 -11617879#1 -11617879#2 -11617879#3 -11617879#5 -11617959 -11618003#0 -11618003#2 -11618003#3 -11618003#4 -11618006 -11618049#1 -11618064 -11618066#0 -11618066#1 -11618066#2 -11618066#3 -11618330#0 -11618330#1 -11618428#0 -11618428#1 -11618428#2 -11618428#3 -11618428#4 -11618455 -11618651#0 -11618651#1 -11618699 -11618701#0 -11618701#1 -11618715 -11618746 -11618820 -11618841 -11618853 -11618987 -11619050#0 -11619050#1 -11619088#0 -11619088#1 -11619088#2 -11619088#3 -11619088#4 -11619088#5 -11619130 -11619196#0 -11619196#1 -11619260 -11619413#0 -11619413#1 -11619413#2 -11619453#0 -11619453#1 -11619460 -11619509#0 -11619509#1 -11619509#2 -11619510 -11619531#0 -11619531#1 -11619532#0 -11619532#2 -11619713#0 -11619713#1 -11619713#2 -11619713#3 -11619713#4 -11619713#5 -11619713#6 -11619713#7.246 -11619717 -11619731#2 -11619731#3 -11619731#4 -11619731#5 -11619731#6 -11619852 -11619893 -11619940 -11620067#0 -11620067#1 -11620067#2 -11620067#3 -11620142#0 -11620142#1 -11620185 -11620187 -11620196#1 -11620196#2 -11620196#3 -11620196#4 -11620196#5 -11620196#6 -11620196#7 -11620210 -11620316#0 -11620316#1 -11620316#2 -11620316#3 -11620316#4 -11620471#1 -11620471#10 -11620471#11 -11620471#12 -11620471#13 -11620471#14 -11620471#2 -11620471#3 -11620471#4 -11620471#5 -11620471#6 -11620471#7 -11620471#8 -11620471#9 -11620523#0 -11620523#2 -11620524 -11620535#0 -11620535#1 -11620570#1 -11620570#2 -11620575#0 -11620575#1 -11620575#2 -11620575#3 -11620575#4 -11620575#5 -11620575#6 -11620680#0 -11620680#1 -11620680#2 -11620680#3 -11620680#4 -11620680#5 -11620726 -11620727 -11620837 -11620873#0 -11620879#0 -11620879#1 -11620879#2 -11620937#0 -11620937#1 -11621006#0 -11621006#1 -11621006#2 -11621006#3 -11621006#4 -11621009 -11621095 -11621096 -11621250 -11621289#0 -11621289#1 -11621289#2 -11621359 -11621372 -11621401#1 -11621401#10 -11621401#11 -11621401#12 -11621401#13 -11621401#14 -11621401#15 -11621401#2 -11621401#3 -11621401#4 -11621401#5 -11621401#6 -11621401#7 -11621401#8 -11621401#9 -11621452#4 -11621452#5 -11621452#6 -11621452#7 -11621526#2 -11621541#0 -11621541#1 -11621592 -11621593 -11621666#0 -11621666#1 -11621666#10 -11621666#11 -11621666#12 -11621666#13 -11621666#14 -11621666#15 -11621666#2 -11621666#3 -11621666#4 -11621666#5 -11621666#6 -11621666#7 -11621666#8 -11621666#9 -11621828#0 -11621828#1 -11621844 -11621857 -11621863 -11621970 -11622014 -11622124 -11622195#1 -11622195#2 -11622198#0 -11622198#1 -11622242 -11622274#0 -11622274#1 -11622274#2 -11622274#3 -11622380#0 -11622380#1 -11622439#0 -11622439#1 -11622453#1 -11622453#10 -11622453#11 -11622453#12 -11622453#9 -11622456 -11622498#0 -11622498#1 -11622498#2 -11622589 -11622666#0 -11622666#1 -11622666#2 -11622690#0 -11622690#1 -11622690#2 -11622690#3 -11622690#4 -11622780 -11622892#0 -11622892#1 -11622892#2 -11622892#3 -11622955 -11622997 -11622999#0 -11622999#1 -11622999#2 -11623023 -11623029 -11623075#0 -11623075#1 -11623075#10 -11623075#11 -11623075#12 -11623075#13 -11623075#14 -11623075#15 -11623075#16 -11623075#17 -11623075#18 -11623075#19 -11623075#2 -11623075#20 -11623075#3 -11623075#4 -11623075#5 -11623075#6 -11623075#7 -11623075#8 -11623075#9 -11623082 -11623161 -11623294 -11623296#0 -11623296#1 -11623296#2 -11623296#3 -11623300 -11623301 -11623443#0 -11623443#1 -11623443#2 -11623486#0 -11623486#1 -11623625 -11623680#0 -11623680#1 -11623924 -11624010 -11624029 -11624047 -11624048#1 -11624064#8 -11624089#0 -11624089#1 -11624089#2 -11624119 -11624179#0 -11624179#1 -11624179#2 -11624328 -11624369#0 -11624369#1 -11624369#2 -11624407 -11624542 -11624579#0 -11624579#1 -11624579#2 -11624579#3 -11624584 -11624594#0 -11624594#1 -11624764#1 -11624798 -11624812 -11624830#2 -11624830#3 -11624830#4 -11624858#0 -11624858#1 -11624858#2.496 -11625064#0 -11625064#1 -11625064#2 -11625064#3 -11625095#0 -11625095#1 -11625095#10 -11625095#11 -11625095#12 -11625095#13 -11625095#14 -11625095#15 -11625095#2 -11625095#3 -11625095#4 -11625095#5 -11625095#6 -11625095#7 -11625095#8 -11625095#9 -222857202#0 -222857202#1 -222857295#0 -222857295#1 -222857295#2 -222857295#3 -222857295#4 -222857295#5 -224940630#0 -224940630#1 -224940630#2 -224940630#3 -224940630#4 -224940630#5 -224940633 -224940635#0 -224940635#1 -224940635#2 -224940635#3 -224940635#4 -224940706 -224940712#0 -224940712#1 -224940712#2 -224940712#3 -224940712#4 -224940713 -224940715 -256664450 -262807631#0 -262807631#1 -262807631#2 -262807631#3 -262807631#4 -262807631#5 -262807631#6 -262807631#7 -262807710#0 -268206221#0 -268206221#1 -268206221#2 -268206221#3 -268206221#4 -268206221#5 -268206223#0 -268206223#1 -268206223#2 -268206235#0 -268206235#1 -268206235#2 -268206235#3 -268206235#4 -268206235#5 -268206235#6 -268206238#2 -268206248#0 -268206248#1 -268206248#2 -268206254#0 -268206254#1 -268206254#2 -268206254#3 -268206254#4 -268206254#5 -268206255 -268206256#0 -268206256#1 -268206256#2 -268206256#3 -268206284 -268206317#0 -268206317#1 -268206317#2 -268206317#3 -268206317#4 -268206317#5 -268206317#6 -268206317#7 -268206317#8 -268206317#9 -268206318#0 -268206331#0 -268206331#1 -268206331#2 -268206344#0 -268206344#1 -27239078#0 -27239078#2 -27239078#3 -27239078#4 -27239078#5 -27239078#6 -27280554#0 -27280554#1 -27280554#2 -27280554#3 -27827471#0 -27827471#1 -27827471#2 -27827471#3 -27827471#5 -27827473#0 -27827473#1 -27827473#2 -27827473#3 -27827473#4 -27827473#5 -27827473#6 -27827473#7 -27827473#8 -27827481#0 -27827481#1 -27827481#2 -27827481#3 -27827481#4 -27827481#5 -27827483#1 -27827483#2 -27827483#3 -27827483#4 -27827483#5 -28274780#10 -28274780#11 -28274780#12 -28274780#2 -28274780#3 -28274780#4 -28274780#5 -28274780#6 -28274780#7 -28274780#8 -28274780#9 -351451186 -359194707 -38312420#0 -38312420#1 -38312440#0 -38312440#1 -38312440#2 -38312440#3 -38312440#4 -38312440#5 -38312440#6 -38312449#0 -396219949 -424473202 -424851735#10 -424851735#11 -424851735#6 -424851735#7 -424851735#8 -424851735#9 -424975233#0 -424975233#1 -424975233#10 -424975233#11 -424975233#12 -424975233#13 -424975233#14 -424975233#15 -424975233#16 -424975233#18 -424975233#2 -424975233#3 -424975233#4 -424975233#5 -424975233#6 -424975233#7 -424975233#8 -424975233#9 -425195349#0 -425195349#1 -425195349#2 -425195349#3 -425195349#4 -425195349#5 -425195349#6 -425243270 -425408799 -425422759#0 -425422759#1 -425422759#2 -425431901#0 -425431901#1 -425431901#10 -425431901#11 -425431901#12 -425431901#13 -425431901#14 -425431901#15 -425431901#2 -425431901#3 -425431901#4 -425431901#5 -425431901#6 -425431901#7 -425431901#8 -425431901#9 -425431904 -425433922#0 -425433922#1 -425433922#2 -425433922#3 -425433923#0 -425433923#1 -425433923#2 -425433923#3 -425433923#4 -425433923#5 -425433923#6 -425433923#7 -425433923#8 -425433923#9 -425434491#0 -425434491#1 -425434491#10 -425434491#2 -425434491#3 -425434491#4 -425434491#5 -425434491#6 -425434491#7 -425434491#8 -425434491#9 -425440458 -425442680#10 -425442680#12 -425442680#13 -425442680#14 -425442680#15 -425442680#16 -425442680#17 -425442680#18 -425442680#6 -425442680#7 -425442680#8 -425442680#9 -425442682#0 -425442682#1 -425442682#2 -425442682#3 -425442682#4 -425442682#5 -425442682#6 -425442682#7 -425442682#8 -425442683 -425442685#0 -425442685#1 -426412565#0 -426412565#1 -426412565#2 -426412565#3 -426412565#4 -46965490#0 -46965490#1 -576298425 -576298426 -576298430 -576614136 -576623798 -576623807 -576623814 -576623832 -576623861 -576623896 -576623906 -579737304 -579954407 -579954409#1 -579954409#2 -579954409#3 -579984660 -581804457#1 -581804462#3 -581804462#4 -581988735#0 -581988735#1 -581988735#2 -581988735#3 -581988735#4 -581988735#5 -581988735#6 -581988735#7 -581988735#8 -582382056#2 -60254496 11613776 11614328 11614329 11614385#0 11614385#1 11614390 11614831 11614966 11614975#0 11614975#1 11614975#2 11614975#3 11614975#4 11614975#5 11616293#0 11616293#1 11616343 11616474 11616496 11616518 11616519#0 11616519#1 11616519#2 11616519#3 11616519#4 11616519#5 11616520 11616521 11616544#0 11616544#1 11616570#0 11616570#1 11616570#2 11616725 11616734 11616790 11616817#2 11616817#3 11616817#4 11616904#0 11616904#1 11617012 11617043 11617072#0 11617072#1 11617072#2 11617099 11617148#5 11617159 11617249 11617252#0 11617252#1 11617252#10 11617252#2 11617252#3 11617252#4 11617252#5 11617252#6 11617252#7 11617252#8 11617252#9 11617287#0 11617287#1 11617287#2 11617294#0 11617294#1 11617309 11617336 11617409#0 11617409#1 11617409#2 11617409#3 11617413#0 11617413#1 11617416#0 11617416#1 11617416#2 11617416#3 11617416#4 11617416#5 11617416#6 11617418#0 11617418#1 11617418#2 11617418#3 11617418#4 11617418#5 11617425 11617515 11617542 11617546#0 11617546#1 11617566 11617596 11617668 11617737 11617746 11617759#0 11617759#1 11617769 11617807#0 11617807#1 11617807#2 11617851 11617852 11617856#0 11617856#1 11617861#4 11617861#6 11617861#7 11617879#0 11617879#1 11617879#2 11617879#3 11617879#4 11617943#0 11617943#1 11617943#2 11617959 11618003#0 11618003#1 11618003#3 11618003#4 11618006 11618020#0 11618020#1 11618020#2 11618020#3 11618049#1 11618064 11618066#0 11618066#1 11618066#2 11618066#3 11618168#0 11618168#1 11618168#2 11618168#3 11618168#5 11618168#7 11618202#1 11618230#0 11618230#1 11618330#0 11618330#1 11618422 11618428#0 11618428#1 11618428#2 11618428#3 11618428#4 11618455 11618580 11618651#0 11618651#1 11618657#0 11618699 11618701#0 11618701#1 11618715 11618746 11618751#1 11618788#0 11618788#1 11618788#2 11618819#0 11618819#1 11618819#2 11618819#3 11618819#4 11618819#5 11618819#6 11618820 11618840 11618841 11618853 11618854#0 11618854#1 11618854#2 11618854#3 11618854#4 11618855#2 11618987 11619050#0 11619050#1 11619088#1 11619088#2 11619088#3 11619088#4 11619088#5 11619130 11619132#0 11619132#1 11619138#0 11619138#1 11619191 11619196#0 11619196#1 11619246#0 11619246#1 11619260 11619405#0 11619405#1 11619405#2 11619413#0 11619413#1 11619413#2 11619428 11619453#0 11619453#1 11619460 11619509#0 11619509#1 11619509#2 11619510 11619531#0 11619531#1 11619532#1 11619713#1 11619713#2 11619713#3 11619713#4 11619713#5 11619713#6 11619713#7 11619716#0 11619716#1 11619716#2 11619717 11619731#2 11619731#3 11619731#4 11619731#5 11619731#6 11619783 11619797 11619852 11619893 11619903#0 11619903#1 11619940 11620000#0 11620000#1 11620000#2 11620000#3 11620000#4 11620000#5 11620013#0 11620013#1 11620067#0 11620067#1 11620067#2 11620067#3 11620142#0 11620142#1 11620185 11620187 11620196#1 11620196#2 11620196#3 11620196#4 11620196#5 11620196#6 11620196#7 11620210 11620211 11620316#0 11620316#1 11620316#2 11620316#3 11620316#4 11620440#0 11620440#1 11620440#2 11620440#3 11620440#4 11620440#5 11620441 11620471#1 11620471#10 11620471#11 11620471#12 11620471#13 11620471#14 11620471#2 11620471#3 11620471#4 11620471#5 11620471#6 11620471#7 11620471#8 11620471#9 11620479 11620522#0 11620522#1 11620523#0 11620523#1 11620535#0 11620535#1 11620557 11620570#1 11620570#2 11620575#0 11620575#1 11620575#2 11620575#3 11620575#4 11620575#5 11620575#6 11620680#0 11620680#1 11620680#2 11620680#3 11620680#4 11620680#5 11620684 11620726 11620727 11620837 11620873#0 11620873#1 11620875#0 11620875#1 11620879#0 11620879#1 11620879#2 11620879#3 11620937#0 11620937#1 11621006#0 11621006#1 11621006#2 11621006#3 11621006#4 11621022#0 11621022#1 11621022#2 11621022#3 11621095 11621096 11621250 11621288 11621289#0 11621289#1 11621289#2 11621359 11621372 11621401#1 11621401#10 11621401#11 11621401#12 11621401#13 11621401#14 11621401#15 11621401#2 11621401#3 11621401#4 11621401#5 11621401#6 11621401#7 11621401#8 11621401#9 11621420#1 11621420#2 11621420#3 11621425#0 11621425#2 11621425#3 11621452#4 11621452#5 11621452#6 11621452#7 11621480#0 11621480#1 11621480#2 11621480#3 11621506 11621526#2 11621526#3 11621541#0 11621541#1 11621575 11621592 11621593 11621666#1 11621666#10 11621666#11 11621666#12 11621666#13 11621666#14 11621666#15 11621666#2 11621666#3 11621666#4 11621666#5 11621666#6 11621666#7 11621666#8 11621666#9 11621777 11621822 11621828#1 11621828#2 11621844 11621854 11621857 11621863 11621970 11621984#0 11621984#1 11621984#2 11622014 11622076 11622092#0 11622092#1 11622092#2 11622092#3 11622124 11622195#1 11622195#2 11622198#1 11622242 11622249#1 11622258 11622274#0 11622274#1 11622274#2 11622274#3 11622378#0 11622378#1 11622380#0 11622380#1 11622389#0 11622389#1 11622389#2 11622439#0 11622439#1 11622453#0 11622453#10 11622453#11 11622453#12 11622453#2 11622456 11622498#0 11622498#1 11622498#2 11622589 11622591#0 11622591#1 11622593#0 11622593#1 11622593#2 11622593#3 11622666#1 11622666#2 11622690#0 11622690#1 11622690#2 11622690#3 11622690#4 11622780 11622789 11622877#0 11622877#2 11622892#0 11622892#1 11622892#2 11622892#3 11622955 11622981 11622997 11622999#0 11622999#1 11622999#2 11623023 11623029 11623075#0 11623075#1 11623075#10 11623075#11 11623075#12 11623075#13 11623075#14 11623075#15 11623075#16 11623075#17 11623075#18 11623075#19 11623075#2 11623075#20 11623075#3 11623075#4 11623075#5 11623075#6 11623075#7 11623075#8 11623075#9 11623082 11623161 11623276 11623294 11623296#0 11623296#1 11623296#2 11623296#3 11623300 11623301 11623443#0 11623443#1 11623443#2 11623444 11623445#1 11623478 11623486#0 11623486#1 11623625 11623680#0 11623680#1 11623830#0 11623830#1 11623854#1 11623924 11624010 11624029 11624047 11624048#1 11624063 11624064#8 11624066 11624089#0 11624089#1 11624089#2 11624089#3 11624119 11624179#0 11624179#1 11624179#2 11624234 11624328 11624339 11624369#0 11624369#1 11624369#2 11624407 11624437 11624542 11624579#0 11624579#1 11624579#2 11624579#3 11624584 11624594#0 11624594#1 11624594#2 11624667#0 11624667#1 11624667#2 11624667#3 11624667#4 11624764#1 11624798 11624812 11624813#0 11624813#1 11624813#2 11624830#2 11624830#3 11624830#4 11624858#0 11624858#1 11624858#2 11624913#0 11624913#1 11624913#2 11624914 11625012#0 11625012#1 11625012#2 11625012#3 11625012#4 11625012#5 11625059#0 11625059#1 11625064#0 11625064#1 11625064#2 11625064#3 11625095#0 11625095#1 11625095#10 11625095#11 11625095#12 11625095#13 11625095#14 11625095#15 11625095#2 11625095#3 11625095#4 11625095#5 11625095#6 11625095#7 11625095#8 11625095#9 222857202#0 222857202#1 222857295#0 222857295#1 222857295#2 222857295#3 222857295#4 222857295#5 224940630#0 224940630#1 224940630#2 224940630#3 224940630#4 224940630#5 224940635#0 224940635#1 224940635#2 224940635#3 224940635#4 224940706 224940712#0 224940712#1 224940712#2 224940712#3 224940712#4 224940713 224940715 256664450 262807631#0 262807631#1 262807631#2 262807631#3 262807631#4 262807631#5 262807631#6 262807631#7 262807710#0 262807710#1 268206221#0 268206221#1 268206221#2 268206221#3 268206221#4 268206221#5 268206223#0 268206223#1 268206223#2 268206235#0 268206235#1 268206235#2 268206235#3 268206235#4 268206235#5 268206235#6 268206235#7 268206238#2 268206248#0 268206248#1 268206248#2 268206252#0 268206252#1 268206252#2 268206252#3 268206254#0 268206254#1 268206254#2 268206254#3 268206254#4 268206254#5 268206255 268206256#0 268206256#1 268206256#2 268206256#3 268206284 268206317#0 268206317#1 268206317#2 268206317#3 268206317#4 268206317#5 268206317#6 268206317#7 268206317#8 268206317#9 268206318#0 268206318#1 268206331#0 268206331#1 268206331#2 268206344#0 268206344#1 27239078#0 27239078#1 27239078#3 27239078#4 27239078#5 27239078#6 27280554#0 27280554#1 27280554#2 27280554#3 27398149 27398150 27398151 27398166 27400642 27400643 27400646 274872890 276670024 277168817 27827471#0 27827471#1 27827471#2 27827471#3 27827471#4 27827473#0 27827473#1 27827473#2 27827473#3 27827473#4 27827473#5 27827473#6 27827473#7 27827473#8 27827473#9 27827481#0 27827481#1 27827481#2 27827481#3 27827481#4 27827481#5 27827483#1 27827483#2 27827483#3 27827483#4 27827483#5 28274780#10 28274780#11 28274780#12 28274780#2 28274780#3 28274780#4 28274780#5 28274780#6 28274780#7 28274780#8 28274780#9 32334434#0.2011 351451186 359194707 38312390 38312406 38312420#1 38312432#1 38312440#1 38312440#2 38312440#3 38312440#4 38312440#5 38312440#6 38312449#1 38312480 396219949 396219950#0 396219950#1 424472513 424473202 424473203#0 424473203#1 424851734#7 424851735#10 424851735#11 424851735#6 424851735#7 424851735#8 424851735#9 424975233#0 424975233#1 424975233#10 424975233#11 424975233#12 424975233#13 424975233#14 424975233#15 424975233#16 424975233#17 424975233#2 424975233#3 424975233#4 424975233#5 424975233#6 424975233#7 424975233#8 424975233#9 425190864 425193058 425195349#1 425195349#2 425195349#3 425195349#4 425195349#5 425195349#6 425217558#0 425217558#1 425217558#10 425217558#11 425217558#12 425217558#13 425217558#14 425217558#2 425217558#4 425217558#6 425217558#7 425217558#8 425217558#9 425217562#0 425389810#0 425389810#1 425389810#2 425408799 425422759#0 425422759#1 425422759#2 425431900#0 425431900#1 425431900#2 425431901#1 425431901#10 425431901#11 425431901#12 425431901#13 425431901#14 425431901#15 425431901#2 425431901#3 425431901#4 425431901#5 425431901#6 425431901#7 425431901#8 425431901#9 425431904 425432311#0 425432311#1 425432311#2 425432311#3 425432311#4 425432958#0 425432958#1 425432958#2 425432958#3 425432958#4 425432958#5 425432958#6 425432958#7 425432958#8 425433921#0 425433921#1 425433921#2 425433922#0 425433922#1 425433922#2 425433922#3 425433923#0 425433923#1 425433923#2 425433923#3 425433923#4 425433923#5 425433923#6 425433923#7 425433923#8 425433923#9 425434491#0 425434491#1 425434491#10 425434491#2 425434491#3 425434491#4 425434491#5 425434491#6 425434491#7 425434491#8 425434491#9 425440458 425442680#10 425442680#11 425442680#13 425442680#14 425442680#15 425442680#16 425442680#17 425442680#18 425442680#19 425442680#6 425442680#7 425442680#8 425442680#9 425442681 425442682#0 425442682#1 425442682#2 425442682#3 425442682#4 425442682#5 425442682#6 425442682#7 425442682#8 425442683 425442685#0 425442685#1 426412565#0 426412565#1 426412565#2 426412565#3 426412565#4 46965490#0 46965490#1 484167889 54671929#1 54672730#0 54672730#2 54672730#3 576298425 576298426 576298427 576298428 576349119 576349120#0 576349120#1 576354106 576357608 576614136 576623793#0 576623793#1 576623793#2 576623793#3 576623798 576623807 576623814 576623825#0 576623825#1 576623825#2 576623825#3 576623832 576623843#0 576623843#1 576623843#2 576623843#3 576623849 576623861 576623873#1 576623873#2 576623873#3 576623873#4 576623884 576623896 576623906 579954407 579954408 579954409#1 579954409#2 579954409#3 579984659 579984660 579984661 581804457#1 581804462#3 581804462#4 581988735#0 581988735#1 581988735#2 581988735#3 581988735#4 581988735#5 581988735#6 581988735#7 581988735#8 582118670#0 582118670#1 582382056#2 582734773 582734774#1 582734774#2 582734775 582734776#0 582734776#1 582734777#0 582734777#1 60254496 60254500 60254510"/>